* NGSPICE file created from riscv_pipeline_top.ext - technology: sky130A

* Black-box entry subcircuit for sky130_fd_sc_hd__decap_6 abstract view
.subckt sky130_fd_sc_hd__decap_6 VGND VNB VPB VPWR
.ends

* Black-box entry subcircuit for sky130_ef_sc_hd__decap_12 abstract view
.subckt sky130_ef_sc_hd__decap_12 VPWR VGND VPB VNB
.ends

* Black-box entry subcircuit for sky130_fd_sc_hd__fill_1 abstract view
.subckt sky130_fd_sc_hd__fill_1 VGND VNB VPB VPWR
.ends

* Black-box entry subcircuit for sky130_fd_sc_hd__tapvpwrvgnd_1 abstract view
.subckt sky130_fd_sc_hd__tapvpwrvgnd_1 VGND VPWR
.ends

* Black-box entry subcircuit for sky130_fd_sc_hd__conb_1 abstract view
.subckt sky130_fd_sc_hd__conb_1 VGND VNB VPB VPWR HI LO
.ends

* Black-box entry subcircuit for sky130_fd_sc_hd__decap_4 abstract view
.subckt sky130_fd_sc_hd__decap_4 VGND VNB VPB VPWR
.ends

* Black-box entry subcircuit for sky130_fd_sc_hd__dfrtp_1 abstract view
.subckt sky130_fd_sc_hd__dfrtp_1 CLK D RESET_B VGND VNB VPB VPWR Q
.ends

* Black-box entry subcircuit for sky130_fd_sc_hd__clkbuf_1 abstract view
.subckt sky130_fd_sc_hd__clkbuf_1 A VGND VNB VPB VPWR X
.ends

* Black-box entry subcircuit for sky130_fd_sc_hd__decap_8 abstract view
.subckt sky130_fd_sc_hd__decap_8 VGND VNB VPB VPWR
.ends

* Black-box entry subcircuit for sky130_fd_sc_hd__fill_2 abstract view
.subckt sky130_fd_sc_hd__fill_2 VGND VNB VPB VPWR
.ends

* Black-box entry subcircuit for sky130_fd_sc_hd__decap_3 abstract view
.subckt sky130_fd_sc_hd__decap_3 VGND VNB VPB VPWR
.ends

* Black-box entry subcircuit for sky130_fd_sc_hd__clkbuf_4 abstract view
.subckt sky130_fd_sc_hd__clkbuf_4 A VGND VNB VPB VPWR X
.ends

* Black-box entry subcircuit for sky130_fd_sc_hd__and2b_1 abstract view
.subckt sky130_fd_sc_hd__and2b_1 A_N B VGND VNB VPB VPWR X
.ends

* Black-box entry subcircuit for sky130_fd_sc_hd__a31o_1 abstract view
.subckt sky130_fd_sc_hd__a31o_1 A1 A2 A3 B1 VGND VNB VPB VPWR X
.ends

* Black-box entry subcircuit for sky130_fd_sc_hd__dlygate4sd3_1 abstract view
.subckt sky130_fd_sc_hd__dlygate4sd3_1 A VGND VNB VPB VPWR X
.ends

* Black-box entry subcircuit for sky130_fd_sc_hd__buf_2 abstract view
.subckt sky130_fd_sc_hd__buf_2 A VGND VNB VPB VPWR X
.ends

* Black-box entry subcircuit for sky130_fd_sc_hd__and4_1 abstract view
.subckt sky130_fd_sc_hd__and4_1 A B C D VGND VNB VPB VPWR X
.ends

* Black-box entry subcircuit for sky130_fd_sc_hd__a41o_1 abstract view
.subckt sky130_fd_sc_hd__a41o_1 A1 A2 A3 A4 B1 VGND VNB VPB VPWR X
.ends

* Black-box entry subcircuit for sky130_fd_sc_hd__a21o_1 abstract view
.subckt sky130_fd_sc_hd__a21o_1 A1 A2 B1 VGND VNB VPB VPWR X
.ends

* Black-box entry subcircuit for sky130_fd_sc_hd__o31a_1 abstract view
.subckt sky130_fd_sc_hd__o31a_1 A1 A2 A3 B1 VGND VNB VPB VPWR X
.ends

* Black-box entry subcircuit for sky130_fd_sc_hd__and3_1 abstract view
.subckt sky130_fd_sc_hd__and3_1 A B C VGND VNB VPB VPWR X
.ends

* Black-box entry subcircuit for sky130_fd_sc_hd__dfrtp_4 abstract view
.subckt sky130_fd_sc_hd__dfrtp_4 CLK D RESET_B VGND VNB VPB VPWR Q
.ends

* Black-box entry subcircuit for sky130_fd_sc_hd__clkbuf_16 abstract view
.subckt sky130_fd_sc_hd__clkbuf_16 A VGND VNB VPB VPWR X
.ends

* Black-box entry subcircuit for sky130_fd_sc_hd__inv_2 abstract view
.subckt sky130_fd_sc_hd__inv_2 A VGND VNB VPB VPWR Y
.ends

* Black-box entry subcircuit for sky130_fd_sc_hd__nand3_1 abstract view
.subckt sky130_fd_sc_hd__nand3_1 A B C VGND VNB VPB VPWR Y
.ends

* Black-box entry subcircuit for sky130_fd_sc_hd__a32o_1 abstract view
.subckt sky130_fd_sc_hd__a32o_1 A1 A2 A3 B1 B2 VGND VNB VPB VPWR X
.ends

* Black-box entry subcircuit for sky130_fd_sc_hd__xor2_1 abstract view
.subckt sky130_fd_sc_hd__xor2_1 A B VGND VNB VPB VPWR X
.ends

* Black-box entry subcircuit for sky130_fd_sc_hd__a211o_1 abstract view
.subckt sky130_fd_sc_hd__a211o_1 A1 A2 B1 C1 VGND VNB VPB VPWR X
.ends

* Black-box entry subcircuit for sky130_fd_sc_hd__o21ba_1 abstract view
.subckt sky130_fd_sc_hd__o21ba_1 A1 A2 B1_N VGND VNB VPB VPWR X
.ends

* Black-box entry subcircuit for sky130_fd_sc_hd__nor2_1 abstract view
.subckt sky130_fd_sc_hd__nor2_1 A B VGND VNB VPB VPWR Y
.ends

* Black-box entry subcircuit for sky130_fd_sc_hd__a221o_1 abstract view
.subckt sky130_fd_sc_hd__a221o_1 A1 A2 B1 B2 C1 VGND VNB VPB VPWR X
.ends

* Black-box entry subcircuit for sky130_fd_sc_hd__buf_4 abstract view
.subckt sky130_fd_sc_hd__buf_4 A VGND VNB VPB VPWR X
.ends

* Black-box entry subcircuit for sky130_fd_sc_hd__clkbuf_2 abstract view
.subckt sky130_fd_sc_hd__clkbuf_2 A VGND VNB VPB VPWR X
.ends

* Black-box entry subcircuit for sky130_fd_sc_hd__and2_1 abstract view
.subckt sky130_fd_sc_hd__and2_1 A B VGND VNB VPB VPWR X
.ends

* Black-box entry subcircuit for sky130_fd_sc_hd__dfstp_1 abstract view
.subckt sky130_fd_sc_hd__dfstp_1 CLK D SET_B VGND VNB VPB VPWR Q
.ends

* Black-box entry subcircuit for sky130_fd_sc_hd__xnor2_1 abstract view
.subckt sky130_fd_sc_hd__xnor2_1 A B VGND VNB VPB VPWR Y
.ends

* Black-box entry subcircuit for sky130_fd_sc_hd__nand2_1 abstract view
.subckt sky130_fd_sc_hd__nand2_1 A B VGND VNB VPB VPWR Y
.ends

* Black-box entry subcircuit for sky130_fd_sc_hd__or2_1 abstract view
.subckt sky130_fd_sc_hd__or2_1 A B VGND VNB VPB VPWR X
.ends

* Black-box entry subcircuit for sky130_fd_sc_hd__or3b_1 abstract view
.subckt sky130_fd_sc_hd__or3b_1 A B C_N VGND VNB VPB VPWR X
.ends

* Black-box entry subcircuit for sky130_fd_sc_hd__or3_1 abstract view
.subckt sky130_fd_sc_hd__or3_1 A B C VGND VNB VPB VPWR X
.ends

* Black-box entry subcircuit for sky130_fd_sc_hd__and4_2 abstract view
.subckt sky130_fd_sc_hd__and4_2 A B C D VGND VNB VPB VPWR X
.ends

* Black-box entry subcircuit for sky130_fd_sc_hd__diode_2 abstract view
.subckt sky130_fd_sc_hd__diode_2 DIODE VGND VNB VPB VPWR
.ends

.subckt riscv_pipeline_top M_AXI_ARADDR[10] M_AXI_ARADDR[11] M_AXI_ARADDR[12] M_AXI_ARADDR[22]
+ M_AXI_ARADDR[23] M_AXI_ARADDR[24] M_AXI_ARADDR[25] M_AXI_ARADDR[28] M_AXI_ARADDR[29]
+ M_AXI_ARADDR[3] M_AXI_ARADDR[4] M_AXI_ARADDR[5] M_AXI_ARADDR[9] M_AXI_ARREADY M_AXI_ARVALID
+ M_AXI_AWADDR[1] M_AXI_AWADDR[20] M_AXI_AWADDR[21] M_AXI_AWADDR[22] M_AXI_AWADDR[23]
+ M_AXI_AWADDR[24] M_AXI_AWADDR[25] M_AXI_AWADDR[26] M_AXI_AWADDR[27] M_AXI_AWADDR[28]
+ M_AXI_AWADDR[29] M_AXI_AWADDR[2] M_AXI_AWADDR[7] M_AXI_AWADDR[8] M_AXI_AWADDR[9]
+ M_AXI_AWREADY M_AXI_BREADY M_AXI_BRESP[0] M_AXI_BRESP[1] M_AXI_BVALID M_AXI_RDATA[0]
+ M_AXI_RDATA[10] M_AXI_RDATA[11] M_AXI_RDATA[12] M_AXI_RDATA[13] M_AXI_RDATA[14]
+ M_AXI_RDATA[15] M_AXI_RDATA[16] M_AXI_RDATA[17] M_AXI_RDATA[18] M_AXI_RDATA[19]
+ M_AXI_RDATA[1] M_AXI_RDATA[20] M_AXI_RDATA[21] M_AXI_RDATA[22] M_AXI_RDATA[23] M_AXI_RDATA[24]
+ M_AXI_RDATA[25] M_AXI_RDATA[26] M_AXI_RDATA[27] M_AXI_RDATA[28] M_AXI_RDATA[29]
+ M_AXI_RDATA[2] M_AXI_RDATA[30] M_AXI_RDATA[31] M_AXI_RDATA[3] M_AXI_RDATA[4] M_AXI_RDATA[5]
+ M_AXI_RDATA[6] M_AXI_RDATA[7] M_AXI_RDATA[8] M_AXI_RDATA[9] M_AXI_RREADY M_AXI_RRESP[0]
+ M_AXI_RRESP[1] M_AXI_RVALID M_AXI_WDATA[0] M_AXI_WDATA[15] M_AXI_WDATA[16] M_AXI_WDATA[17]
+ M_AXI_WDATA[18] M_AXI_WDATA[19] M_AXI_WDATA[1] M_AXI_WDATA[22] M_AXI_WDATA[23] M_AXI_WDATA[24]
+ M_AXI_WDATA[25] M_AXI_WDATA[26] M_AXI_WDATA[27] M_AXI_WDATA[2] M_AXI_WDATA[30] M_AXI_WDATA[31]
+ M_AXI_WDATA[3] M_AXI_WDATA[4] M_AXI_WDATA[5] M_AXI_WREADY M_AXI_WSTRB[0] M_AXI_WSTRB[1]
+ M_AXI_WSTRB[2] M_AXI_WSTRB[3] M_AXI_WVALID VGND VPWR clk led[0] led[1] led[2] led[3]
+ led[5] led[6] led[7] led[8] led[9] rst_n M_AXI_WDATA[21] M_AXI_WDATA[20] M_AXI_ARADDR[15]
+ M_AXI_ARADDR[14] M_AXI_ARADDR[13] M_AXI_ARADDR[2] M_AXI_ARADDR[1] M_AXI_AWADDR[12]
+ M_AXI_AWADDR[11] M_AXI_AWADDR[0] M_AXI_ARADDR[0] M_AXI_AWVALID M_AXI_AWADDR[10]
+ M_AXI_ARADDR[21] M_AXI_ARADDR[20] M_AXI_ARADDR[31] M_AXI_WDATA[9] M_AXI_AWADDR[31]
+ M_AXI_ARADDR[8] M_AXI_WDATA[8] M_AXI_AWADDR[19] M_AXI_ARADDR[30] M_AXI_ARADDR[19]
+ M_AXI_AWADDR[30] M_AXI_ARADDR[7] M_AXI_ARADDR[18] M_AXI_WDATA[7] M_AXI_AWADDR[18]
+ M_AXI_WDATA[6] M_AXI_AWADDR[6] M_AXI_ARADDR[6] M_AXI_AWADDR[17] M_AXI_ARADDR[17]
+ M_AXI_AWADDR[5] M_AXI_AWADDR[16] M_AXI_ARADDR[27] M_AXI_ARADDR[16] M_AXI_AWADDR[4]
+ M_AXI_ARADDR[26] M_AXI_AWADDR[15] M_AXI_AWADDR[3] M_AXI_WDATA[14] M_AXI_AWADDR[14]
+ M_AXI_AWADDR[13] M_AXI_WDATA[13] M_AXI_WDATA[12] M_AXI_WDATA[11] M_AXI_WDATA[10]
+ M_AXI_WDATA[29] M_AXI_WDATA[28] led[4]
XFILLER_0_94_77 VGND VGND VPWR VPWR sky130_fd_sc_hd__decap_6
XFILLER_0_27_93 VPWR VGND VPWR VGND sky130_ef_sc_hd__decap_12
XFILLER_0_167_809 VPWR VGND VPWR VGND sky130_ef_sc_hd__decap_12
XFILLER_0_89_461 VPWR VGND VPWR VGND sky130_ef_sc_hd__decap_12
XFILLER_0_76_133 VGND VGND VPWR VPWR sky130_fd_sc_hd__decap_6
XFILLER_0_159_393 VPWR VGND VPWR VGND sky130_ef_sc_hd__decap_12
XFILLER_0_134_83 VGND VGND VPWR VPWR sky130_fd_sc_hd__fill_1
XFILLER_0_76_177 VPWR VGND VPWR VGND sky130_ef_sc_hd__decap_12
XFILLER_0_58_881 VPWR VGND VPWR VGND sky130_ef_sc_hd__decap_12
XFILLER_0_18_701 VPWR VGND VPWR VGND sky130_ef_sc_hd__decap_12
XFILLER_0_43_81 VPWR VGND VPWR VGND sky130_ef_sc_hd__decap_12
XFILLER_0_92_637 VGND VGND VPWR VPWR sky130_fd_sc_hd__decap_6
XFILLER_0_91_125 VPWR VGND VPWR VGND sky130_ef_sc_hd__decap_12
XFILLER_0_57_391 VGND VGND VPWR VPWR sky130_fd_sc_hd__fill_1
XFILLER_0_162_525 VGND VGND VPWR VPWR sky130_fd_sc_hd__decap_6
XFILLER_0_119_279 VGND VGND VPWR VPWR sky130_fd_sc_hd__fill_1
XFILLER_0_91_169 VPWR VGND VPWR VGND sky130_ef_sc_hd__decap_12
XFILLER_0_45_553 VGND VGND VPWR VPWR sky130_fd_sc_hd__decap_6
XFILLER_0_162_569 VPWR VGND VPWR VGND sky130_ef_sc_hd__decap_12
XFILLER_0_115_441 VGND VGND VPWR VPWR sky130_fd_sc_hd__decap_6
XFILLER_0_73_895 VGND VGND VPWR VPWR sky130_fd_sc_hd__fill_1
XFILLER_0_60_501 VPWR VGND VPWR VGND sky130_ef_sc_hd__decap_12
XFILLER_0_45_597 VPWR VGND VPWR VGND sky130_ef_sc_hd__decap_12
XFILLER_0_143_783 VGND VGND VPWR VPWR sky130_fd_sc_hd__fill_1
XFILLER_0_115_485 VPWR VGND VPWR VGND sky130_ef_sc_hd__decap_12
XFILLER_0_60_545 VPWR VGND VPWR VGND sky130_ef_sc_hd__decap_12
XFILLER_0_131_945 VGND VGND VPWR VPWR sky130_fd_sc_hd__decap_6
XFILLER_0_130_433 VPWR VGND VPWR VGND sky130_ef_sc_hd__decap_12
XFILLER_0_60_589 VPWR VGND VPWR VGND sky130_ef_sc_hd__decap_12
XFILLER_0_13_461 VPWR VGND VPWR VGND sky130_ef_sc_hd__decap_12
XFILLER_0_14_973 VGND VGND VPWR VPWR sky130_fd_sc_hd__decap_6
XFILLER_0_131_989 VPWR VGND VPWR VGND sky130_ef_sc_hd__decap_12
XFILLER_0_130_477 VPWR VGND VPWR VGND sky130_ef_sc_hd__decap_12
XFILLER_0_7_81 VPWR VGND VPWR VGND sky130_ef_sc_hd__decap_12
XFILLER_0_99_1033 VPWR VGND VPWR VGND sky130_ef_sc_hd__decap_12
XTAP_3213 VGND VPWR sky130_fd_sc_hd__tapvpwrvgnd_1
XTAP_3202 VGND VPWR sky130_fd_sc_hd__tapvpwrvgnd_1
XFILLER_0_99_225 VPWR VGND VPWR VGND sky130_ef_sc_hd__decap_12
XFILLER_0_169_113 VPWR VGND VPWR VGND sky130_ef_sc_hd__decap_12
XTAP_3246 VGND VPWR sky130_fd_sc_hd__tapvpwrvgnd_1
XTAP_3235 VGND VPWR sky130_fd_sc_hd__tapvpwrvgnd_1
XTAP_3224 VGND VPWR sky130_fd_sc_hd__tapvpwrvgnd_1
XTAP_2501 VGND VPWR sky130_fd_sc_hd__tapvpwrvgnd_1
XTAP_3279 VGND VPWR sky130_fd_sc_hd__tapvpwrvgnd_1
XTAP_3268 VGND VPWR sky130_fd_sc_hd__tapvpwrvgnd_1
XTAP_3257 VGND VPWR sky130_fd_sc_hd__tapvpwrvgnd_1
XTAP_2545 VGND VPWR sky130_fd_sc_hd__tapvpwrvgnd_1
XTAP_2534 VGND VPWR sky130_fd_sc_hd__tapvpwrvgnd_1
XTAP_2523 VGND VPWR sky130_fd_sc_hd__tapvpwrvgnd_1
XTAP_2512 VGND VPWR sky130_fd_sc_hd__tapvpwrvgnd_1
XTAP_1800 VGND VPWR sky130_fd_sc_hd__tapvpwrvgnd_1
XFILLER_0_68_601 VPWR VGND VPWR VGND sky130_ef_sc_hd__decap_12
XTAP_2567 VGND VPWR sky130_fd_sc_hd__tapvpwrvgnd_1
XTAP_2578 VGND VPWR sky130_fd_sc_hd__tapvpwrvgnd_1
XTAP_2556 VGND VPWR sky130_fd_sc_hd__tapvpwrvgnd_1
XTAP_1833 VGND VPWR sky130_fd_sc_hd__tapvpwrvgnd_1
XTAP_1822 VGND VPWR sky130_fd_sc_hd__tapvpwrvgnd_1
XTAP_1811 VGND VPWR sky130_fd_sc_hd__tapvpwrvgnd_1
XFILLER_0_68_645 VPWR VGND VPWR VGND sky130_ef_sc_hd__decap_12
XFILLER_0_67_111 VGND VGND VPWR VPWR sky130_fd_sc_hd__fill_1
XFILLER_0_138_533 VPWR VGND VPWR VGND sky130_ef_sc_hd__decap_12
XTAP_2589 VGND VPWR sky130_fd_sc_hd__tapvpwrvgnd_1
XFILLER_0_83_615 VGND VGND VPWR VPWR sky130_fd_sc_hd__fill_1
XTAP_1866 VGND VPWR sky130_fd_sc_hd__tapvpwrvgnd_1
XTAP_1844 VGND VPWR sky130_fd_sc_hd__tapvpwrvgnd_1
XTAP_1855 VGND VPWR sky130_fd_sc_hd__tapvpwrvgnd_1
XFILLER_0_55_317 VPWR VGND VPWR VGND sky130_ef_sc_hd__decap_12
XFILLER_0_153_503 VGND VGND VPWR VPWR sky130_fd_sc_hd__fill_1
XFILLER_0_95_497 VGND VGND VPWR VPWR sky130_fd_sc_hd__decap_6
XTAP_1899 VGND VPWR sky130_fd_sc_hd__tapvpwrvgnd_1
XTAP_1888 VGND VPWR sky130_fd_sc_hd__tapvpwrvgnd_1
XTAP_1877 VGND VPWR sky130_fd_sc_hd__tapvpwrvgnd_1
XFILLER_0_165_385 VGND VGND VPWR VPWR sky130_fd_sc_hd__decap_6
XFILLER_0_125_205 VPWR VGND VPWR VGND sky130_ef_sc_hd__decap_12
XFILLER_0_70_309 VPWR VGND VPWR VGND sky130_ef_sc_hd__decap_12
XFILLER_0_36_531 VGND VGND VPWR VPWR sky130_fd_sc_hd__fill_1
XFILLER_0_141_709 VPWR VGND VPWR VGND sky130_ef_sc_hd__decap_12
XFILLER_0_125_249 VPWR VGND VPWR VGND sky130_ef_sc_hd__decap_12
XFILLER_0_107_953 VPWR VGND VPWR VGND sky130_ef_sc_hd__decap_12
XFILLER_0_63_361 VPWR VGND VPWR VGND sky130_ef_sc_hd__decap_12
XFILLER_0_3_609 VGND VGND VPWR VPWR sky130_fd_sc_hd__decap_6
XFILLER_0_24_737 VPWR VGND VPWR VGND sky130_ef_sc_hd__decap_12
XFILLER_0_122_923 VGND VGND VPWR VPWR sky130_fd_sc_hd__fill_1
XFILLER_0_23_225 VPWR VGND VPWR VGND sky130_ef_sc_hd__decap_12
XFILLER_0_133_293 VPWR VGND VPWR VGND sky130_ef_sc_hd__decap_12
XFILLER_0_107_1033 VPWR VGND VPWR VGND sky130_ef_sc_hd__decap_12
XFILLER_0_48_15 VPWR VGND VPWR VGND sky130_ef_sc_hd__decap_12
XFILLER_0_32_781 VPWR VGND VPWR VGND sky130_ef_sc_hd__decap_12
XFILLER_0_43_1021 VPWR VGND VPWR VGND sky130_ef_sc_hd__decap_12
Xriscv_pipeline_top_61 VGND VGND VPWR VPWR riscv_pipeline_top_61/HI M_AXI_AWADDR[14]
+ sky130_fd_sc_hd__conb_1
XFILLER_0_139_39 VPWR VGND VPWR VGND sky130_ef_sc_hd__decap_12
Xriscv_pipeline_top_72 VGND VGND VPWR VPWR riscv_pipeline_top_72/HI M_AXI_AWADDR[25]
+ sky130_fd_sc_hd__conb_1
Xriscv_pipeline_top_50 VGND VGND VPWR VPWR riscv_pipeline_top_50/HI M_AXI_AWADDR[3]
+ sky130_fd_sc_hd__conb_1
Xriscv_pipeline_top_83 VGND VGND VPWR VPWR riscv_pipeline_top_83/HI M_AXI_WDATA[3]
+ sky130_fd_sc_hd__conb_1
Xriscv_pipeline_top_94 VGND VGND VPWR VPWR riscv_pipeline_top_94/HI M_AXI_WDATA[14]
+ sky130_fd_sc_hd__conb_1
XFILLER_0_155_27 VPWR VGND VPWR VGND sky130_ef_sc_hd__decap_12
XFILLER_0_3_39 VPWR VGND VPWR VGND sky130_ef_sc_hd__decap_12
XFILLER_0_149_809 VPWR VGND VPWR VGND sky130_ef_sc_hd__decap_12
XFILLER_0_87_921 VPWR VGND VPWR VGND sky130_ef_sc_hd__decap_12
XFILLER_0_171_15 VPWR VGND VPWR VGND sky130_ef_sc_hd__decap_12
XFILLER_0_147_3 VPWR VGND VPWR VGND sky130_ef_sc_hd__decap_12
XFILLER_0_114_1037 VPWR VGND VPWR VGND sky130_ef_sc_hd__decap_12
XFILLER_0_87_965 VPWR VGND VPWR VGND sky130_ef_sc_hd__decap_12
XFILLER_0_58_133 VGND VGND VPWR VPWR sky130_fd_sc_hd__decap_6
XFILLER_0_157_853 VPWR VGND VPWR VGND sky130_ef_sc_hd__decap_12
XFILLER_0_86_475 VGND VGND VPWR VPWR sky130_fd_sc_hd__fill_1
XFILLER_0_156_363 VGND VGND VPWR VPWR sky130_fd_sc_hd__fill_1
XFILLER_0_104_53 VPWR VGND VPWR VGND sky130_ef_sc_hd__decap_12
XFILLER_0_74_637 VGND VGND VPWR VPWR sky130_fd_sc_hd__decap_6
XFILLER_0_73_125 VPWR VGND VPWR VGND sky130_ef_sc_hd__decap_12
XFILLER_0_58_177 VPWR VGND VPWR VGND sky130_ef_sc_hd__decap_12
XFILLER_0_11_1009 VPWR VGND VPWR VGND sky130_ef_sc_hd__decap_12
XFILLER_0_13_51 VGND VGND VPWR VPWR sky130_fd_sc_hd__decap_4
XFILLER_0_157_897 VPWR VGND VPWR VGND sky130_ef_sc_hd__decap_12
XFILLER_0_144_525 VGND VGND VPWR VPWR sky130_fd_sc_hd__decap_6
XFILLER_0_104_97 VPWR VGND VPWR VGND sky130_ef_sc_hd__decap_12
XFILLER_0_73_169 VPWR VGND VPWR VGND sky130_ef_sc_hd__decap_12
XFILLER_0_27_553 VGND VGND VPWR VPWR sky130_fd_sc_hd__decap_6
XFILLER_0_39_391 VGND VGND VPWR VPWR sky130_fd_sc_hd__fill_1
XFILLER_0_172_867 VGND VGND VPWR VPWR sky130_fd_sc_hd__fill_1
XFILLER_0_144_569 VPWR VGND VPWR VGND sky130_ef_sc_hd__decap_12
XFILLER_0_82_681 VPWR VGND VPWR VGND sky130_ef_sc_hd__decap_12
XFILLER_0_55_895 VGND VGND VPWR VPWR sky130_fd_sc_hd__fill_1
XFILLER_0_6_469 VGND VGND VPWR VPWR sky130_fd_sc_hd__decap_6
XFILLER_0_27_597 VPWR VGND VPWR VGND sky130_ef_sc_hd__decap_12
XFILLER_0_42_501 VPWR VGND VPWR VGND sky130_ef_sc_hd__decap_12
XFILLER_0_125_783 VGND VGND VPWR VPWR sky130_fd_sc_hd__fill_1
XFILLER_0_120_41 VPWR VGND VPWR VGND sky130_ef_sc_hd__decap_12
XFILLER_0_89_55 VGND VGND VPWR VPWR sky130_fd_sc_hd__fill_1
XFILLER_0_42_545 VPWR VGND VPWR VGND sky130_ef_sc_hd__decap_12
XFILLER_0_113_945 VGND VGND VPWR VPWR sky130_fd_sc_hd__decap_6
XFILLER_0_112_433 VPWR VGND VPWR VGND sky130_ef_sc_hd__decap_12
XFILLER_0_42_589 VPWR VGND VPWR VGND sky130_ef_sc_hd__decap_12
XFILLER_0_160_1035 VGND VGND VPWR VPWR sky130_fd_sc_hd__fill_1
XFILLER_0_120_85 VPWR VGND VPWR VGND sky130_ef_sc_hd__decap_12
XFILLER_0_113_989 VPWR VGND VPWR VGND sky130_ef_sc_hd__decap_12
XFILLER_0_112_477 VPWR VGND VPWR VGND sky130_ef_sc_hd__decap_12
XFILLER_0_11_921 VPWR VGND VPWR VGND sky130_ef_sc_hd__decap_12
XFILLER_0_11_965 VPWR VGND VPWR VGND sky130_ef_sc_hd__decap_12
XFILLER_0_10_475 VGND VGND VPWR VPWR sky130_fd_sc_hd__fill_1
XFILLER_0_97_729 VPWR VGND VPWR VGND sky130_ef_sc_hd__decap_12
XFILLER_0_167_617 VPWR VGND VPWR VGND sky130_ef_sc_hd__decap_12
XFILLER_0_145_93 VPWR VGND VPWR VGND sky130_ef_sc_hd__decap_12
XFILLER_0_49_111 VGND VGND VPWR VPWR sky130_fd_sc_hd__fill_1
XTAP_1118 VGND VPWR sky130_fd_sc_hd__tapvpwrvgnd_1
XTAP_1107 VGND VPWR sky130_fd_sc_hd__tapvpwrvgnd_1
XTAP_1129 VGND VPWR sky130_fd_sc_hd__tapvpwrvgnd_1
XFILLER_0_92_401 VPWR VGND VPWR VGND sky130_ef_sc_hd__decap_12
XFILLER_0_65_615 VGND VGND VPWR VPWR sky130_fd_sc_hd__fill_1
XFILLER_0_135_503 VGND VGND VPWR VPWR sky130_fd_sc_hd__fill_1
XFILLER_0_77_497 VGND VGND VPWR VPWR sky130_fd_sc_hd__decap_6
XFILLER_0_37_317 VPWR VGND VPWR VGND sky130_ef_sc_hd__decap_12
XFILLER_0_161_81 VPWR VGND VPWR VGND sky130_ef_sc_hd__decap_12
XFILLER_0_147_385 VGND VGND VPWR VPWR sky130_fd_sc_hd__decap_6
XFILLER_0_107_205 VPWR VGND VPWR VGND sky130_ef_sc_hd__decap_12
XFILLER_0_92_445 VPWR VGND VPWR VGND sky130_ef_sc_hd__decap_12
XFILLER_0_52_309 VPWR VGND VPWR VGND sky130_ef_sc_hd__decap_12
XFILLER_0_18_531 VGND VGND VPWR VPWR sky130_fd_sc_hd__fill_1
XFILLER_0_162_333 VPWR VGND VPWR VGND sky130_ef_sc_hd__decap_12
XFILLER_0_123_709 VPWR VGND VPWR VGND sky130_ef_sc_hd__decap_12
XFILLER_0_107_249 VPWR VGND VPWR VGND sky130_ef_sc_hd__decap_12
XFILLER_0_92_489 VPWR VGND VPWR VGND sky130_ef_sc_hd__decap_12
XFILLER_0_61_821 VPWR VGND VPWR VGND sky130_ef_sc_hd__decap_12
XFILLER_0_45_361 VPWR VGND VPWR VGND sky130_ef_sc_hd__decap_12
XFILLER_0_163_889 VGND VGND VPWR VPWR sky130_fd_sc_hd__decap_6
XFILLER_0_162_377 VPWR VGND VPWR VGND sky130_ef_sc_hd__decap_12
XFILLER_0_104_923 VGND VGND VPWR VPWR sky130_fd_sc_hd__fill_1
XFILLER_0_61_865 VPWR VGND VPWR VGND sky130_ef_sc_hd__decap_12
XFILLER_0_6_981 VPWR VGND VPWR VGND sky130_ef_sc_hd__decap_12
XFILLER_0_115_293 VPWR VGND VPWR VGND sky130_ef_sc_hd__decap_12
XFILLER_0_104_945 VPWR VGND VPWR VGND sky130_ef_sc_hd__decap_12
XFILLER_0_21_729 VPWR VGND VPWR VGND sky130_ef_sc_hd__decap_12
XFILLER_0_131_753 VPWR VGND VPWR VGND sky130_ef_sc_hd__decap_12
XFILLER_0_14_781 VPWR VGND VPWR VGND sky130_ef_sc_hd__decap_12
XFILLER_0_131_797 VPWR VGND VPWR VGND sky130_ef_sc_hd__decap_12
XFILLER_0_18_29 VPWR VGND VPWR VGND sky130_ef_sc_hd__decap_12
XTAP_3021 VGND VPWR sky130_fd_sc_hd__tapvpwrvgnd_1
XTAP_3010 VGND VPWR sky130_fd_sc_hd__tapvpwrvgnd_1
XTAP_3054 VGND VPWR sky130_fd_sc_hd__tapvpwrvgnd_1
XTAP_3043 VGND VPWR sky130_fd_sc_hd__tapvpwrvgnd_1
XTAP_3032 VGND VPWR sky130_fd_sc_hd__tapvpwrvgnd_1
XTAP_2320 VGND VPWR sky130_fd_sc_hd__tapvpwrvgnd_1
XFILLER_0_87_217 VGND VGND VPWR VPWR sky130_fd_sc_hd__decap_6
XFILLER_0_69_921 VPWR VGND VPWR VGND sky130_ef_sc_hd__decap_12
XFILLER_0_157_105 VGND VGND VPWR VPWR sky130_fd_sc_hd__decap_6
XTAP_3098 VGND VPWR sky130_fd_sc_hd__tapvpwrvgnd_1
XTAP_3087 VGND VPWR sky130_fd_sc_hd__tapvpwrvgnd_1
XTAP_3065 VGND VPWR sky130_fd_sc_hd__tapvpwrvgnd_1
XTAP_3076 VGND VPWR sky130_fd_sc_hd__tapvpwrvgnd_1
XTAP_2353 VGND VPWR sky130_fd_sc_hd__tapvpwrvgnd_1
XTAP_2342 VGND VPWR sky130_fd_sc_hd__tapvpwrvgnd_1
XTAP_2331 VGND VPWR sky130_fd_sc_hd__tapvpwrvgnd_1
XFILLER_0_69_965 VPWR VGND VPWR VGND sky130_ef_sc_hd__decap_12
XTAP_2386 VGND VPWR sky130_fd_sc_hd__tapvpwrvgnd_1
XTAP_2375 VGND VPWR sky130_fd_sc_hd__tapvpwrvgnd_1
XTAP_2364 VGND VPWR sky130_fd_sc_hd__tapvpwrvgnd_1
XTAP_1641 VGND VPWR sky130_fd_sc_hd__tapvpwrvgnd_1
XFILLER_0_68_475 VGND VGND VPWR VPWR sky130_fd_sc_hd__fill_1
XTAP_1630 VGND VPWR sky130_fd_sc_hd__tapvpwrvgnd_1
XFILLER_0_173_609 VGND VGND VPWR VPWR sky130_fd_sc_hd__decap_6
XFILLER_0_157_149 VPWR VGND VPWR VGND sky130_ef_sc_hd__decap_12
XFILLER_0_139_853 VPWR VGND VPWR VGND sky130_ef_sc_hd__decap_12
XTAP_2397 VGND VPWR sky130_fd_sc_hd__tapvpwrvgnd_1
XFILLER_0_95_261 VPWR VGND VPWR VGND sky130_ef_sc_hd__decap_12
XFILLER_0_84_957 VPWR VGND VPWR VGND sky130_ef_sc_hd__decap_12
XTAP_1685 VGND VPWR sky130_fd_sc_hd__tapvpwrvgnd_1
XTAP_1674 VGND VPWR sky130_fd_sc_hd__tapvpwrvgnd_1
XTAP_1663 VGND VPWR sky130_fd_sc_hd__tapvpwrvgnd_1
XTAP_1652 VGND VPWR sky130_fd_sc_hd__tapvpwrvgnd_1
XFILLER_0_56_637 VGND VGND VPWR VPWR sky130_fd_sc_hd__decap_6
XFILLER_0_55_125 VPWR VGND VPWR VGND sky130_ef_sc_hd__decap_12
XFILLER_0_139_897 VPWR VGND VPWR VGND sky130_ef_sc_hd__decap_12
XFILLER_0_138_363 VGND VGND VPWR VPWR sky130_fd_sc_hd__fill_1
XFILLER_0_126_525 VGND VGND VPWR VPWR sky130_fd_sc_hd__decap_6
XTAP_1696 VGND VPWR sky130_fd_sc_hd__tapvpwrvgnd_1
XFILLER_0_50_27 VGND VGND VPWR VPWR sky130_fd_sc_hd__fill_1
XFILLER_0_165_193 VPWR VGND VPWR VGND sky130_ef_sc_hd__decap_12
XFILLER_0_154_867 VGND VGND VPWR VPWR sky130_fd_sc_hd__fill_1
XFILLER_0_126_569 VPWR VGND VPWR VGND sky130_ef_sc_hd__decap_12
XFILLER_0_71_629 VPWR VGND VPWR VGND sky130_ef_sc_hd__decap_12
XFILLER_0_64_681 VPWR VGND VPWR VGND sky130_ef_sc_hd__decap_12
XFILLER_0_55_169 VPWR VGND VPWR VGND sky130_ef_sc_hd__decap_12
XFILLER_0_24_501 VPWR VGND VPWR VGND sky130_ef_sc_hd__decap_12
XFILLER_0_37_895 VGND VGND VPWR VPWR sky130_fd_sc_hd__fill_1
XFILLER_0_141_517 VPWR VGND VPWR VGND sky130_ef_sc_hd__decap_12
XFILLER_0_107_783 VGND VGND VPWR VPWR sky130_fd_sc_hd__fill_1
XFILLER_0_70_139 VGND VGND VPWR VPWR sky130_fd_sc_hd__fill_1
XFILLER_0_3_417 VPWR VGND VPWR VGND sky130_ef_sc_hd__decap_12
XFILLER_0_24_545 VPWR VGND VPWR VGND sky130_ef_sc_hd__decap_12
XFILLER_0_24_589 VPWR VGND VPWR VGND sky130_ef_sc_hd__decap_12
XFILLER_0_80_1029 VGND VGND VPWR VPWR sky130_fd_sc_hd__decap_6
XFILLER_0_11_217 VGND VGND VPWR VPWR sky130_fd_sc_hd__decap_6
XFILLER_0_110_937 VPWR VGND VPWR VGND sky130_ef_sc_hd__decap_12
XFILLER_0_59_69 VPWR VGND VPWR VGND sky130_ef_sc_hd__decap_12
XFILLER_0_166_15 VPWR VGND VPWR VGND sky130_ef_sc_hd__decap_12
XFILLER_0_75_57 VPWR VGND VPWR VGND sky130_ef_sc_hd__decap_12
XFILLER_0_79_729 VPWR VGND VPWR VGND sky130_ef_sc_hd__decap_12
XFILLER_0_149_617 VPWR VGND VPWR VGND sky130_ef_sc_hd__decap_12
XFILLER_0_115_30 VPWR VGND VPWR VGND sky130_ef_sc_hd__decap_12
XFILLER_0_47_615 VGND VGND VPWR VPWR sky130_fd_sc_hd__fill_1
XFILLER_0_74_401 VPWR VGND VPWR VGND sky130_ef_sc_hd__decap_12
XFILLER_0_59_497 VGND VGND VPWR VPWR sky130_fd_sc_hd__decap_6
XFILLER_0_19_317 VPWR VGND VPWR VGND sky130_ef_sc_hd__decap_12
XFILLER_0_24_83 VGND VGND VPWR VPWR sky130_fd_sc_hd__fill_1
XFILLER_0_129_385 VGND VGND VPWR VPWR sky130_fd_sc_hd__decap_6
XFILLER_0_117_503 VGND VGND VPWR VPWR sky130_fd_sc_hd__fill_1
XFILLER_0_89_1021 VPWR VGND VPWR VGND sky130_ef_sc_hd__decap_12
XFILLER_0_74_445 VPWR VGND VPWR VGND sky130_ef_sc_hd__decap_12
XFILLER_0_144_333 VPWR VGND VPWR VGND sky130_ef_sc_hd__decap_12
XFILLER_0_131_51 VGND VGND VPWR VPWR sky130_fd_sc_hd__decap_4
XFILLER_0_105_709 VPWR VGND VPWR VGND sky130_ef_sc_hd__decap_12
XFILLER_0_74_489 VPWR VGND VPWR VGND sky130_ef_sc_hd__decap_12
XFILLER_0_6_233 VPWR VGND VPWR VGND sky130_ef_sc_hd__decap_12
XFILLER_0_27_361 VPWR VGND VPWR VGND sky130_ef_sc_hd__decap_12
XFILLER_0_34_309 VPWR VGND VPWR VGND sky130_ef_sc_hd__decap_12
XFILLER_0_43_821 VPWR VGND VPWR VGND sky130_ef_sc_hd__decap_12
XFILLER_0_160_837 VPWR VGND VPWR VGND sky130_ef_sc_hd__decap_12
XFILLER_0_145_889 VGND VGND VPWR VPWR sky130_fd_sc_hd__decap_6
XFILLER_0_144_377 VPWR VGND VPWR VGND sky130_ef_sc_hd__decap_12
XFILLER_0_6_277 VPWR VGND VPWR VGND sky130_ef_sc_hd__decap_12
XFILLER_0_43_865 VPWR VGND VPWR VGND sky130_ef_sc_hd__decap_12
XFILLER_0_113_753 VPWR VGND VPWR VGND sky130_ef_sc_hd__decap_12
XFILLER_0_71_3 VPWR VGND VPWR VGND sky130_ef_sc_hd__decap_12
XFILLER_0_3_951 VGND VGND VPWR VPWR sky130_fd_sc_hd__fill_1
XFILLER_0_113_797 VPWR VGND VPWR VGND sky130_ef_sc_hd__decap_12
XFILLER_0_100_469 VGND VGND VPWR VPWR sky130_fd_sc_hd__decap_6
XFILLER_0_57_1009 VPWR VGND VPWR VGND sky130_ef_sc_hd__decap_12
XFILLER_0_69_217 VGND VGND VPWR VPWR sky130_fd_sc_hd__decap_6
XFILLER_0_168_937 VPWR VGND VPWR VGND sky130_ef_sc_hd__decap_12
XFILLER_0_139_105 VGND VGND VPWR VPWR sky130_fd_sc_hd__decap_6
XFILLER_0_97_559 VGND VGND VPWR VPWR sky130_fd_sc_hd__fill_1
XFILLER_0_167_447 VGND VGND VPWR VPWR sky130_fd_sc_hd__fill_1
XFILLER_0_84_209 VPWR VGND VPWR VGND sky130_ef_sc_hd__decap_12
XFILLER_0_155_609 VGND VGND VPWR VPWR sky130_fd_sc_hd__decap_6
XFILLER_0_139_149 VPWR VGND VPWR VGND sky130_ef_sc_hd__decap_12
XFILLER_0_93_721 VGND VGND VPWR VPWR sky130_fd_sc_hd__decap_6
XFILLER_0_77_261 VPWR VGND VPWR VGND sky130_ef_sc_hd__decap_12
XFILLER_0_38_637 VGND VGND VPWR VPWR sky130_fd_sc_hd__decap_6
XFILLER_0_108_525 VGND VGND VPWR VPWR sky130_fd_sc_hd__decap_6
XFILLER_0_93_765 VPWR VGND VPWR VGND sky130_ef_sc_hd__decap_12
X_200_ clknet_1_1__leaf_clk _011_ net11 VGND VGND VPWR VPWR counter\[14\] sky130_fd_sc_hd__dfrtp_1
XFILLER_0_66_979 VGND VGND VPWR VPWR sky130_fd_sc_hd__fill_1
XFILLER_0_37_125 VPWR VGND VPWR VGND sky130_ef_sc_hd__decap_12
XFILLER_0_163_653 VPWR VGND VPWR VGND sky130_ef_sc_hd__decap_12
XFILLER_0_147_193 VPWR VGND VPWR VGND sky130_ef_sc_hd__decap_12
XFILLER_0_136_867 VGND VGND VPWR VPWR sky130_fd_sc_hd__fill_1
X_131_ _044_ VGND VGND VPWR VPWR _031_ sky130_fd_sc_hd__clkbuf_1
XFILLER_0_92_253 VPWR VGND VPWR VGND sky130_ef_sc_hd__decap_12
XFILLER_0_53_629 VPWR VGND VPWR VGND sky130_ef_sc_hd__decap_12
XFILLER_0_19_895 VGND VGND VPWR VPWR sky130_fd_sc_hd__fill_1
XFILLER_0_37_169 VPWR VGND VPWR VGND sky130_ef_sc_hd__decap_12
XFILLER_0_162_141 VPWR VGND VPWR VGND sky130_ef_sc_hd__decap_12
XFILLER_0_123_517 VPWR VGND VPWR VGND sky130_ef_sc_hd__decap_12
XFILLER_0_108_569 VPWR VGND VPWR VGND sky130_ef_sc_hd__decap_12
XFILLER_0_52_139 VGND VGND VPWR VPWR sky130_fd_sc_hd__fill_1
XFILLER_0_46_681 VPWR VGND VPWR VGND sky130_ef_sc_hd__decap_12
XFILLER_0_163_697 VPWR VGND VPWR VGND sky130_ef_sc_hd__decap_12
XFILLER_0_61_673 VPWR VGND VPWR VGND sky130_ef_sc_hd__decap_12
XFILLER_0_131_561 VPWR VGND VPWR VGND sky130_ef_sc_hd__decap_12
XFILLER_0_21_559 VGND VGND VPWR VPWR sky130_fd_sc_hd__fill_1
XFILLER_0_100_981 VPWR VGND VPWR VGND sky130_ef_sc_hd__decap_12
XFILLER_0_100_970 VGND VGND VPWR VPWR sky130_fd_sc_hd__decap_8
XFILLER_0_40_1035 VGND VGND VPWR VPWR sky130_fd_sc_hd__fill_1
XFILLER_0_136_29 VPWR VGND VPWR VGND sky130_ef_sc_hd__decap_12
XFILLER_0_45_27 VPWR VGND VPWR VGND sky130_ef_sc_hd__decap_12
XTAP_2161 VGND VPWR sky130_fd_sc_hd__tapvpwrvgnd_1
XTAP_2150 VGND VPWR sky130_fd_sc_hd__tapvpwrvgnd_1
XFILLER_0_61_15 VPWR VGND VPWR VGND sky130_ef_sc_hd__decap_12
XFILLER_0_0_29 VGND VGND VPWR VPWR sky130_fd_sc_hd__decap_8
XFILLER_0_0_18 VGND VGND VPWR VPWR sky130_fd_sc_hd__decap_8
XFILLER_0_158_469 VGND VGND VPWR VPWR sky130_fd_sc_hd__decap_6
XFILLER_0_111_1007 VGND VGND VPWR VPWR sky130_fd_sc_hd__fill_1
XTAP_2194 VGND VPWR sky130_fd_sc_hd__tapvpwrvgnd_1
XTAP_2183 VGND VPWR sky130_fd_sc_hd__tapvpwrvgnd_1
XTAP_2172 VGND VPWR sky130_fd_sc_hd__tapvpwrvgnd_1
XFILLER_0_96_581 VGND VGND VPWR VPWR sky130_fd_sc_hd__decap_6
XTAP_1460 VGND VPWR sky130_fd_sc_hd__tapvpwrvgnd_1
XFILLER_0_56_401 VPWR VGND VPWR VGND sky130_ef_sc_hd__decap_12
XFILLER_0_29_615 VGND VGND VPWR VPWR sky130_fd_sc_hd__fill_1
XFILLER_0_173_417 VPWR VGND VPWR VGND sky130_ef_sc_hd__decap_12
XFILLER_0_72_905 VPWR VGND VPWR VGND sky130_ef_sc_hd__decap_12
XTAP_1493 VGND VPWR sky130_fd_sc_hd__tapvpwrvgnd_1
XTAP_1471 VGND VPWR sky130_fd_sc_hd__tapvpwrvgnd_1
XTAP_1482 VGND VPWR sky130_fd_sc_hd__tapvpwrvgnd_1
XFILLER_0_56_445 VPWR VGND VPWR VGND sky130_ef_sc_hd__decap_12
XFILLER_0_126_333 VPWR VGND VPWR VGND sky130_ef_sc_hd__decap_12
XFILLER_0_72_949 VPWR VGND VPWR VGND sky130_ef_sc_hd__decap_12
XFILLER_0_56_489 VPWR VGND VPWR VGND sky130_ef_sc_hd__decap_12
XFILLER_0_16_309 VPWR VGND VPWR VGND sky130_ef_sc_hd__decap_12
XFILLER_0_127_889 VGND VGND VPWR VPWR sky130_fd_sc_hd__decap_6
XFILLER_0_126_377 VPWR VGND VPWR VGND sky130_ef_sc_hd__decap_12
XFILLER_0_9_27 VPWR VGND VPWR VGND sky130_ef_sc_hd__decap_12
XFILLER_0_25_821 VPWR VGND VPWR VGND sky130_ef_sc_hd__decap_12
XFILLER_0_142_837 VPWR VGND VPWR VGND sky130_ef_sc_hd__decap_12
XFILLER_0_4_737 VPWR VGND VPWR VGND sky130_ef_sc_hd__decap_12
XFILLER_0_3_225 VPWR VGND VPWR VGND sky130_ef_sc_hd__decap_12
XFILLER_0_25_865 VPWR VGND VPWR VGND sky130_ef_sc_hd__decap_12
XFILLER_0_40_813 VPWR VGND VPWR VGND sky130_ef_sc_hd__decap_12
XFILLER_0_101_54 VGND VGND VPWR VPWR sky130_fd_sc_hd__fill_2
XFILLER_0_80_993 VPWR VGND VPWR VGND sky130_ef_sc_hd__decap_12
XFILLER_0_51_161 VGND VGND VPWR VPWR sky130_fd_sc_hd__decap_6
XFILLER_0_10_41 VPWR VGND VPWR VGND sky130_ef_sc_hd__decap_12
XFILLER_0_150_881 VPWR VGND VPWR VGND sky130_ef_sc_hd__decap_12
XFILLER_0_110_701 VPWR VGND VPWR VGND sky130_ef_sc_hd__decap_12
XFILLER_0_10_85 VPWR VGND VPWR VGND sky130_ef_sc_hd__decap_12
XFILLER_0_20_581 VGND VGND VPWR VPWR sky130_fd_sc_hd__decap_6
XFILLER_0_79_559 VGND VGND VPWR VPWR sky130_fd_sc_hd__fill_1
XFILLER_0_66_209 VPWR VGND VPWR VGND sky130_ef_sc_hd__decap_12
XFILLER_0_35_93 VPWR VGND VPWR VGND sky130_ef_sc_hd__decap_12
XFILLER_0_149_447 VGND VGND VPWR VPWR sky130_fd_sc_hd__fill_1
XFILLER_0_137_609 VGND VGND VPWR VPWR sky130_fd_sc_hd__decap_6
XFILLER_0_75_721 VGND VGND VPWR VPWR sky130_fd_sc_hd__decap_6