*SPEF "ieee 1481-1999"
*DESIGN "vajra_caravel_soc"
*DATE "11:11:11 Fri 11 11, 1111"
*VENDOR "OpenRCX"
*PROGRAM "Parallel Extraction"
*VERSION "1.0"
*DESIGN_FLOW "NAME_SCOPE LOCAL" "PIN_CAP NONE"
*DIVIDER /
*DELIMITER :
*BUS_DELIMITER []
*T_UNIT 1 NS
*C_UNIT 1 PF
*R_UNIT 1 OHM
*L_UNIT 1 HENRY

*NAME_MAP
*1 io_in[0]
*2 io_in[10]
*3 io_in[11]
*4 io_in[12]
*5 io_in[13]
*6 io_in[14]
*7 io_in[15]
*8 io_in[16]
*9 io_in[17]
*10 io_in[18]
*11 io_in[19]
*12 io_in[1]
*13 io_in[20]
*14 io_in[21]
*15 io_in[22]
*16 io_in[23]
*17 io_in[24]
*18 io_in[25]
*19 io_in[26]
*20 io_in[27]
*21 io_in[28]
*22 io_in[29]
*23 io_in[2]
*24 io_in[30]
*25 io_in[31]
*26 io_in[32]
*27 io_in[33]
*28 io_in[34]
*29 io_in[35]
*30 io_in[36]
*31 io_in[37]
*32 io_in[3]
*33 io_in[4]
*34 io_in[5]
*35 io_in[6]
*36 io_in[7]
*37 io_in[8]
*38 io_in[9]
*39 net1
*40 net11
*41 net12
*42 net13
*43 net14
*44 net15
*45 net16
*46 net17
*47 net18
*48 net19
*49 net20
*50 net2
*51 net21
*52 net22
*53 net23
*54 net24
*55 net25
*56 net26
*57 net27
*58 net28
*59 net29
*60 net30
*61 net3
*62 net31
*63 net32
*64 net33
*65 net34
*66 net35
*67 net36
*68 net37
*69 net38
*70 net4
*71 net5
*72 net6
*73 net7
*74 net8
*75 net9
*76 net10
*77 net39
*78 net49
*79 net50
*80 net51
*81 net52
*82 net53
*83 net54
*84 net55
*85 net56
*86 net57
*87 net58
*88 net40
*89 net59
*90 net60
*91 net61
*92 net62
*93 net63
*94 net64
*95 net65
*96 net66
*97 net67
*98 net68
*99 net41
*100 net69
*101 net70
*102 net71
*103 net72
*104 net73
*105 net74
*106 net75
*107 net76
*108 net42
*109 net43
*110 net44
*111 net45
*112 net46
*113 net47
*114 net48
*121 wb_clk_i
*122 wb_rst_i
*123 FILLER_0_0_1005
*124 FILLER_0_0_1009
*125 FILLER_0_0_1021
*126 FILLER_0_0_1033
*127 FILLER_0_0_1037
*128 FILLER_0_0_1042
*129 FILLER_0_0_1054
*130 FILLER_0_0_1062
*131 FILLER_0_0_1065
*132 FILLER_0_0_1077
*133 FILLER_0_0_1089
*134 FILLER_0_0_109
*135 FILLER_0_0_1093
*136 FILLER_0_0_1101
*137 FILLER_0_0_1105
*138 FILLER_0_0_1117
*139 FILLER_0_0_1121
*140 FILLER_0_0_113
*141 FILLER_0_0_1133
*142 FILLER_0_0_1145
*143 FILLER_0_0_1149
*144 FILLER_0_0_1161
*145 FILLER_0_0_1173
*146 FILLER_0_0_1177
*147 FILLER_0_0_118
*148 FILLER_0_0_1189
*149 FILLER_0_0_1201
*150 FILLER_0_0_1205
*151 FILLER_0_0_1217
*152 FILLER_0_0_1229
*153 FILLER_0_0_1233
*154 FILLER_0_0_1238
*155 FILLER_0_0_1250
*156 FILLER_0_0_1258
*157 FILLER_0_0_1261
*158 FILLER_0_0_1273
*159 FILLER_0_0_1285
*160 FILLER_0_0_1289
*161 FILLER_0_0_1297
*162 FILLER_0_0_130
*163 FILLER_0_0_1301
*164 FILLER_0_0_1313
*165 FILLER_0_0_1317
*166 FILLER_0_0_1329
*167 FILLER_0_0_1341
*168 FILLER_0_0_1345
*169 FILLER_0_0_1357
*170 FILLER_0_0_1365
*171 FILLER_0_0_1371
*172 FILLER_0_0_1373
*173 FILLER_0_0_138
*174 FILLER_0_0_1385
*175 FILLER_0_0_1397
*176 FILLER_0_0_1401
*177 FILLER_0_0_141
*178 FILLER_0_0_1413
*179 FILLER_0_0_1425
*180 FILLER_0_0_1429
*181 FILLER_0_0_1434
*182 FILLER_0_0_1446
*183 FILLER_0_0_1454
*184 FILLER_0_0_1457
*185 FILLER_0_0_1469
*186 FILLER_0_0_1481
*187 FILLER_0_0_1485
*188 FILLER_0_0_1497
*189 FILLER_0_0_1504
*190 FILLER_0_0_1513
*191 FILLER_0_0_1525
*192 FILLER_0_0_153
*193 FILLER_0_0_1537
*194 FILLER_0_0_1541
*195 FILLER_0_0_1553
*196 FILLER_0_0_1561
*197 FILLER_0_0_1567
*198 FILLER_0_0_1569
*199 FILLER_0_0_1581
*200 FILLER_0_0_1593
*201 FILLER_0_0_1597
*202 FILLER_0_0_1609
*203 FILLER_0_0_1621
*204 FILLER_0_0_1625
*205 FILLER_0_0_1630
*206 FILLER_0_0_1642
*207 FILLER_0_0_165
*208 FILLER_0_0_1650
*209 FILLER_0_0_1653
*210 FILLER_0_0_1665
*211 FILLER_0_0_1677
*212 FILLER_0_0_1681
*213 FILLER_0_0_169
*214 FILLER_0_0_1693
*215 FILLER_0_0_1700
*216 FILLER_0_0_1709
*217 FILLER_0_0_1721
*218 FILLER_0_0_1733
*219 FILLER_0_0_1737
*220 FILLER_0_0_1749
*221 FILLER_0_0_1757
*222 FILLER_0_0_1763
*223 FILLER_0_0_1765
*224 FILLER_0_0_1777
*225 FILLER_0_0_1789
*226 FILLER_0_0_1793
*227 FILLER_0_0_18
*228 FILLER_0_0_1805
*229 FILLER_0_0_181
*230 FILLER_0_0_1817
*231 FILLER_0_0_1821
*232 FILLER_0_0_1833
*233 FILLER_0_0_1845
*234 FILLER_0_0_1849
*235 FILLER_0_0_1861
*236 FILLER_0_0_1873
*237 FILLER_0_0_1877
*238 FILLER_0_0_188
*239 FILLER_0_0_1889
*240 FILLER_0_0_1896
*241 FILLER_0_0_1905
*242 FILLER_0_0_1917
*243 FILLER_0_0_197
*244 FILLER_0_0_209
*245 FILLER_0_0_221
*246 FILLER_0_0_225
*247 FILLER_0_0_237
*248 FILLER_0_0_245
*249 FILLER_0_0_251
*250 FILLER_0_0_253
*251 FILLER_0_0_26
*252 FILLER_0_0_265
*253 FILLER_0_0_277
*254 FILLER_0_0_281
*255 FILLER_0_0_29
*256 FILLER_0_0_293
*257 FILLER_0_0_305
*258 FILLER_0_0_309
*259 FILLER_0_0_314
*260 FILLER_0_0_326
*261 FILLER_0_0_334
*262 FILLER_0_0_337
*263 FILLER_0_0_349
*264 FILLER_0_0_361
*265 FILLER_0_0_365
*266 FILLER_0_0_377
*267 FILLER_0_0_384
*268 FILLER_0_0_393
*269 FILLER_0_0_405
*270 FILLER_0_0_41
*271 FILLER_0_0_417
*272 FILLER_0_0_421
*273 FILLER_0_0_433
*274 FILLER_0_0_445
*275 FILLER_0_0_449
*276 FILLER_0_0_461
*277 FILLER_0_0_473
*278 FILLER_0_0_477
*279 FILLER_0_0_489
*280 FILLER_0_0_49
*281 FILLER_0_0_501
*282 FILLER_0_0_505
*283 FILLER_0_0_517
*284 FILLER_0_0_529
*285 FILLER_0_0_533
*286 FILLER_0_0_545
*287 FILLER_0_0_55
*288 FILLER_0_0_557
*289 FILLER_0_0_561
*290 FILLER_0_0_57
*291 FILLER_0_0_573
*292 FILLER_0_0_580
*293 FILLER_0_0_589
*294 FILLER_0_0_6
*295 FILLER_0_0_601
*296 FILLER_0_0_613
*297 FILLER_0_0_617
*298 FILLER_0_0_629
*299 FILLER_0_0_637
*300 FILLER_0_0_643
*301 FILLER_0_0_645
*302 FILLER_0_0_657
*303 FILLER_0_0_669
*304 FILLER_0_0_673
*305 FILLER_0_0_685
*306 FILLER_0_0_69
*307 FILLER_0_0_697
*308 FILLER_0_0_701
*309 FILLER_0_0_713
*310 FILLER_0_0_725
*311 FILLER_0_0_729
*312 FILLER_0_0_741
*313 FILLER_0_0_753
*314 FILLER_0_0_757
*315 FILLER_0_0_769
*316 FILLER_0_0_776
*317 FILLER_0_0_785
*318 FILLER_0_0_797
*319 FILLER_0_0_809
*320 FILLER_0_0_81
*321 FILLER_0_0_813
*322 FILLER_0_0_825
*323 FILLER_0_0_837
*324 FILLER_0_0_841
*325 FILLER_0_0_846
*326 FILLER_0_0_85
*327 FILLER_0_0_858
*328 FILLER_0_0_866
*329 FILLER_0_0_869
*330 FILLER_0_0_881
*331 FILLER_0_0_893
*332 FILLER_0_0_897
*333 FILLER_0_0_905
*334 FILLER_0_0_909
*335 FILLER_0_0_921
*336 FILLER_0_0_925
*337 FILLER_0_0_937
*338 FILLER_0_0_949
*339 FILLER_0_0_953
*340 FILLER_0_0_965
*341 FILLER_0_0_97
*342 FILLER_0_0_972
*343 FILLER_0_0_981
*344 FILLER_0_0_993
*345 FILLER_0_100_1005
*346 FILLER_0_100_1017
*347 FILLER_0_100_1029
*348 FILLER_0_100_1035
*349 FILLER_0_100_1037
*350 FILLER_0_100_1049
*351 FILLER_0_100_1061
*352 FILLER_0_100_1073
*353 FILLER_0_100_1085
*354 FILLER_0_100_109
*355 FILLER_0_100_1091
*356 FILLER_0_100_1093
*357 FILLER_0_100_1105
*358 FILLER_0_100_1117
*359 FILLER_0_100_1129
*360 FILLER_0_100_1141
*361 FILLER_0_100_1147
*362 FILLER_0_100_1149
*363 FILLER_0_100_1161
*364 FILLER_0_100_1173
*365 FILLER_0_100_1185
*366 FILLER_0_100_1197
*367 FILLER_0_100_1203
*368 FILLER_0_100_1205
*369 FILLER_0_100_121
*370 FILLER_0_100_1217
*371 FILLER_0_100_1229
*372 FILLER_0_100_1241
*373 FILLER_0_100_1253
*374 FILLER_0_100_1259
*375 FILLER_0_100_1261
*376 FILLER_0_100_1273
*377 FILLER_0_100_1285
*378 FILLER_0_100_1297
*379 FILLER_0_100_1309
*380 FILLER_0_100_1315
*381 FILLER_0_100_1317
*382 FILLER_0_100_1329
*383 FILLER_0_100_133
*384 FILLER_0_100_1341
*385 FILLER_0_100_1353
*386 FILLER_0_100_1365
*387 FILLER_0_100_1371
*388 FILLER_0_100_1373
*389 FILLER_0_100_1385
*390 FILLER_0_100_139
*391 FILLER_0_100_1397
*392 FILLER_0_100_1409
*393 FILLER_0_100_141
*394 FILLER_0_100_1421
*395 FILLER_0_100_1427
*396 FILLER_0_100_1429
*397 FILLER_0_100_1441
*398 FILLER_0_100_1453
*399 FILLER_0_100_1465
*400 FILLER_0_100_1477
*401 FILLER_0_100_1483
*402 FILLER_0_100_1485
*403 FILLER_0_100_1497
*404 FILLER_0_100_15
*405 FILLER_0_100_1509
*406 FILLER_0_100_1521
*407 FILLER_0_100_153
*408 FILLER_0_100_1533
*409 FILLER_0_100_1539
*410 FILLER_0_100_1541
*411 FILLER_0_100_1553
*412 FILLER_0_100_1565
*413 FILLER_0_100_1577
*414 FILLER_0_100_1589
*415 FILLER_0_100_1595
*416 FILLER_0_100_1597
*417 FILLER_0_100_1609
*418 FILLER_0_100_1621
*419 FILLER_0_100_1633
*420 FILLER_0_100_1645
*421 FILLER_0_100_165
*422 FILLER_0_100_1651
*423 FILLER_0_100_1653
*424 FILLER_0_100_1665
*425 FILLER_0_100_1677
*426 FILLER_0_100_1689
*427 FILLER_0_100_1701
*428 FILLER_0_100_1707
*429 FILLER_0_100_1709
*430 FILLER_0_100_1721
*431 FILLER_0_100_1733
*432 FILLER_0_100_1745
*433 FILLER_0_100_1757
*434 FILLER_0_100_1763
*435 FILLER_0_100_1765
*436 FILLER_0_100_177
*437 FILLER_0_100_1777
*438 FILLER_0_100_1789
*439 FILLER_0_100_1801
*440 FILLER_0_100_1813
*441 FILLER_0_100_1819
*442 FILLER_0_100_1821
*443 FILLER_0_100_1833
*444 FILLER_0_100_1845
*445 FILLER_0_100_1857
*446 FILLER_0_100_1869
*447 FILLER_0_100_1875
*448 FILLER_0_100_1877
*449 FILLER_0_100_1889
*450 FILLER_0_100_189
*451 FILLER_0_100_1901
*452 FILLER_0_100_1913
*453 FILLER_0_100_1925
*454 FILLER_0_100_195
*455 FILLER_0_100_197
*456 FILLER_0_100_209
*457 FILLER_0_100_221
*458 FILLER_0_100_233
*459 FILLER_0_100_245
*460 FILLER_0_100_251
*461 FILLER_0_100_253
*462 FILLER_0_100_265
*463 FILLER_0_100_27
*464 FILLER_0_100_277
*465 FILLER_0_100_289
*466 FILLER_0_100_29
*467 FILLER_0_100_3
*468 FILLER_0_100_301
*469 FILLER_0_100_307
*470 FILLER_0_100_309
*471 FILLER_0_100_321
*472 FILLER_0_100_333
*473 FILLER_0_100_345
*474 FILLER_0_100_357
*475 FILLER_0_100_363
*476 FILLER_0_100_365
*477 FILLER_0_100_377
*478 FILLER_0_100_389
*479 FILLER_0_100_401
*480 FILLER_0_100_41
*481 FILLER_0_100_413
*482 FILLER_0_100_419
*483 FILLER_0_100_421
*484 FILLER_0_100_433
*485 FILLER_0_100_445
*486 FILLER_0_100_457
*487 FILLER_0_100_469
*488 FILLER_0_100_475
*489 FILLER_0_100_477
*490 FILLER_0_100_489
*491 FILLER_0_100_501
*492 FILLER_0_100_513
*493 FILLER_0_100_525
*494 FILLER_0_100_53
*495 FILLER_0_100_531
*496 FILLER_0_100_533
*497 FILLER_0_100_545
*498 FILLER_0_100_557
*499 FILLER_0_100_569
*500 FILLER_0_100_581
*501 FILLER_0_100_587
*502 FILLER_0_100_589
*503 FILLER_0_100_601
*504 FILLER_0_100_613
*505 FILLER_0_100_625
*506 FILLER_0_100_637
*507 FILLER_0_100_643
*508 FILLER_0_100_645
*509 FILLER_0_100_65
*510 FILLER_0_100_657
*511 FILLER_0_100_669
*512 FILLER_0_100_681
*513 FILLER_0_100_693
*514 FILLER_0_100_699
*515 FILLER_0_100_701
*516 FILLER_0_100_713
*517 FILLER_0_100_725
*518 FILLER_0_100_737
*519 FILLER_0_100_749
*520 FILLER_0_100_755
*521 FILLER_0_100_757
*522 FILLER_0_100_769
*523 FILLER_0_100_77
*524 FILLER_0_100_781
*525 FILLER_0_100_793
*526 FILLER_0_100_805
*527 FILLER_0_100_811
*528 FILLER_0_100_813
*529 FILLER_0_100_825
*530 FILLER_0_100_83
*531 FILLER_0_100_837
*532 FILLER_0_100_849
*533 FILLER_0_100_85
*534 FILLER_0_100_861
*535 FILLER_0_100_867
*536 FILLER_0_100_869
*537 FILLER_0_100_881
*538 FILLER_0_100_893
*539 FILLER_0_100_905
*540 FILLER_0_100_917
*541 FILLER_0_100_923
*542 FILLER_0_100_925
*543 FILLER_0_100_937
*544 FILLER_0_100_949
*545 FILLER_0_100_961
*546 FILLER_0_100_97
*547 FILLER_0_100_973
*548 FILLER_0_100_979
*549 FILLER_0_100_981
*550 FILLER_0_100_993
*551 FILLER_0_101_1001
*552 FILLER_0_101_1007
*553 FILLER_0_101_1009
*554 FILLER_0_101_1021
*555 FILLER_0_101_1033
*556 FILLER_0_101_1045
*557 FILLER_0_101_105
*558 FILLER_0_101_1057
*559 FILLER_0_101_1063
*560 FILLER_0_101_1065
*561 FILLER_0_101_1077
*562 FILLER_0_101_1089
*563 FILLER_0_101_1101
*564 FILLER_0_101_111
*565 FILLER_0_101_1113
*566 FILLER_0_101_1119
*567 FILLER_0_101_1121
*568 FILLER_0_101_113
*569 FILLER_0_101_1133
*570 FILLER_0_101_1145
*571 FILLER_0_101_1157
*572 FILLER_0_101_1169
*573 FILLER_0_101_1175
*574 FILLER_0_101_1177
*575 FILLER_0_101_1189
*576 FILLER_0_101_1201
*577 FILLER_0_101_1213
*578 FILLER_0_101_1225
*579 FILLER_0_101_1231
*580 FILLER_0_101_1233
*581 FILLER_0_101_1245
*582 FILLER_0_101_125
*583 FILLER_0_101_1257
*584 FILLER_0_101_1269
*585 FILLER_0_101_1281
*586 FILLER_0_101_1287
*587 FILLER_0_101_1289
*588 FILLER_0_101_1301
*589 FILLER_0_101_1313
*590 FILLER_0_101_1325
*591 FILLER_0_101_1337
*592 FILLER_0_101_1343
*593 FILLER_0_101_1345
*594 FILLER_0_101_1357
*595 FILLER_0_101_1369
*596 FILLER_0_101_137
*597 FILLER_0_101_1381
*598 FILLER_0_101_1393
*599 FILLER_0_101_1399
*600 FILLER_0_101_1401
*601 FILLER_0_101_1413
*602 FILLER_0_101_1425
*603 FILLER_0_101_1437
*604 FILLER_0_101_1449
*605 FILLER_0_101_1455
*606 FILLER_0_101_1457
*607 FILLER_0_101_1469
*608 FILLER_0_101_1481
*609 FILLER_0_101_149
*610 FILLER_0_101_1493
*611 FILLER_0_101_1505
*612 FILLER_0_101_1511
*613 FILLER_0_101_1513
*614 FILLER_0_101_1525
*615 FILLER_0_101_1537
*616 FILLER_0_101_1549
*617 FILLER_0_101_1561
*618 FILLER_0_101_1567
*619 FILLER_0_101_1569
*620 FILLER_0_101_1581
*621 FILLER_0_101_1593
*622 FILLER_0_101_1605
*623 FILLER_0_101_161
*624 FILLER_0_101_1617
*625 FILLER_0_101_1623
*626 FILLER_0_101_1625
*627 FILLER_0_101_1637
*628 FILLER_0_101_1649
*629 FILLER_0_101_1661
*630 FILLER_0_101_167
*631 FILLER_0_101_1673
*632 FILLER_0_101_1679
*633 FILLER_0_101_1681
*634 FILLER_0_101_169
*635 FILLER_0_101_1693
*636 FILLER_0_101_1705
*637 FILLER_0_101_1717
*638 FILLER_0_101_1729
*639 FILLER_0_101_1735
*640 FILLER_0_101_1737
*641 FILLER_0_101_1749
*642 FILLER_0_101_1761
*643 FILLER_0_101_1773
*644 FILLER_0_101_1785
*645 FILLER_0_101_1791
*646 FILLER_0_101_1793
*647 FILLER_0_101_18
*648 FILLER_0_101_1805
*649 FILLER_0_101_181
*650 FILLER_0_101_1817
*651 FILLER_0_101_1829
*652 FILLER_0_101_1841
*653 FILLER_0_101_1847
*654 FILLER_0_101_1849
*655 FILLER_0_101_1861
*656 FILLER_0_101_1873
*657 FILLER_0_101_1885
*658 FILLER_0_101_1897
*659 FILLER_0_101_1903
*660 FILLER_0_101_1905
*661 FILLER_0_101_1917
*662 FILLER_0_101_193
*663 FILLER_0_101_205
*664 FILLER_0_101_217
*665 FILLER_0_101_223
*666 FILLER_0_101_225
*667 FILLER_0_101_237
*668 FILLER_0_101_249
*669 FILLER_0_101_261
*670 FILLER_0_101_273
*671 FILLER_0_101_279
*672 FILLER_0_101_281
*673 FILLER_0_101_293
*674 FILLER_0_101_30
*675 FILLER_0_101_305
*676 FILLER_0_101_317
*677 FILLER_0_101_329
*678 FILLER_0_101_335
*679 FILLER_0_101_337
*680 FILLER_0_101_349
*681 FILLER_0_101_361
*682 FILLER_0_101_373
*683 FILLER_0_101_385
*684 FILLER_0_101_391
*685 FILLER_0_101_393
*686 FILLER_0_101_405
*687 FILLER_0_101_417
*688 FILLER_0_101_42
*689 FILLER_0_101_429
*690 FILLER_0_101_441
*691 FILLER_0_101_447
*692 FILLER_0_101_449
*693 FILLER_0_101_461
*694 FILLER_0_101_473
*695 FILLER_0_101_485
*696 FILLER_0_101_497
*697 FILLER_0_101_503
*698 FILLER_0_101_505
*699 FILLER_0_101_517
*700 FILLER_0_101_529
*701 FILLER_0_101_54
*702 FILLER_0_101_541
*703 FILLER_0_101_553
*704 FILLER_0_101_559
*705 FILLER_0_101_561
*706 FILLER_0_101_57
*707 FILLER_0_101_573
*708 FILLER_0_101_585
*709 FILLER_0_101_597
*710 FILLER_0_101_6
*711 FILLER_0_101_609
*712 FILLER_0_101_615
*713 FILLER_0_101_617
*714 FILLER_0_101_629
*715 FILLER_0_101_641
*716 FILLER_0_101_653
*717 FILLER_0_101_665
*718 FILLER_0_101_671
*719 FILLER_0_101_673
*720 FILLER_0_101_685
*721 FILLER_0_101_69
*722 FILLER_0_101_697
*723 FILLER_0_101_709
*724 FILLER_0_101_721
*725 FILLER_0_101_727
*726 FILLER_0_101_729
*727 FILLER_0_101_741
*728 FILLER_0_101_753
*729 FILLER_0_101_765
*730 FILLER_0_101_777
*731 FILLER_0_101_783
*732 FILLER_0_101_785
*733 FILLER_0_101_797
*734 FILLER_0_101_809
*735 FILLER_0_101_81
*736 FILLER_0_101_821
*737 FILLER_0_101_833
*738 FILLER_0_101_839
*739 FILLER_0_101_841
*740 FILLER_0_101_853
*741 FILLER_0_101_865
*742 FILLER_0_101_877
*743 FILLER_0_101_889
*744 FILLER_0_101_895
*745 FILLER_0_101_897
*746 FILLER_0_101_909
*747 FILLER_0_101_921
*748 FILLER_0_101_93
*749 FILLER_0_101_933
*750 FILLER_0_101_945
*751 FILLER_0_101_951
*752 FILLER_0_101_953
*753 FILLER_0_101_965
*754 FILLER_0_101_977
*755 FILLER_0_101_989
*756 FILLER_0_102_1005
*757 FILLER_0_102_1017
*758 FILLER_0_102_1029
*759 FILLER_0_102_1035
*760 FILLER_0_102_1037
*761 FILLER_0_102_1049
*762 FILLER_0_102_1061
*763 FILLER_0_102_1073
*764 FILLER_0_102_1085
*765 FILLER_0_102_109
*766 FILLER_0_102_1091
*767 FILLER_0_102_1093
*768 FILLER_0_102_1105
*769 FILLER_0_102_1117
*770 FILLER_0_102_1129
*771 FILLER_0_102_1141
*772 FILLER_0_102_1147
*773 FILLER_0_102_1149
*774 FILLER_0_102_1161
*775 FILLER_0_102_1173
*776 FILLER_0_102_1185
*777 FILLER_0_102_1197
*778 FILLER_0_102_1203
*779 FILLER_0_102_1205
*780 FILLER_0_102_121
*781 FILLER_0_102_1217
*782 FILLER_0_102_1229
*783 FILLER_0_102_1241
*784 FILLER_0_102_1253
*785 FILLER_0_102_1259
*786 FILLER_0_102_1261
*787 FILLER_0_102_1273
*788 FILLER_0_102_1285
*789 FILLER_0_102_1297
*790 FILLER_0_102_1309
*791 FILLER_0_102_1315
*792 FILLER_0_102_1317
*793 FILLER_0_102_1329
*794 FILLER_0_102_133
*795 FILLER_0_102_1341
*796 FILLER_0_102_1353
*797 FILLER_0_102_1365
*798 FILLER_0_102_1371
*799 FILLER_0_102_1373
*800 FILLER_0_102_1385
*801 FILLER_0_102_139
*802 FILLER_0_102_1397
*803 FILLER_0_102_1409
*804 FILLER_0_102_141
*805 FILLER_0_102_1421
*806 FILLER_0_102_1427
*807 FILLER_0_102_1429
*808 FILLER_0_102_1441
*809 FILLER_0_102_1453
*810 FILLER_0_102_1465
*811 FILLER_0_102_1477
*812 FILLER_0_102_1483
*813 FILLER_0_102_1485
*814 FILLER_0_102_1497
*815 FILLER_0_102_15
*816 FILLER_0_102_1509
*817 FILLER_0_102_1521
*818 FILLER_0_102_153
*819 FILLER_0_102_1533
*820 FILLER_0_102_1539
*821 FILLER_0_102_1541
*822 FILLER_0_102_1553
*823 FILLER_0_102_1565
*824 FILLER_0_102_1577
*825 FILLER_0_102_1589
*826 FILLER_0_102_1595
*827 FILLER_0_102_1597
*828 FILLER_0_102_1609
*829 FILLER_0_102_1621
*830 FILLER_0_102_1633
*831 FILLER_0_102_1645
*832 FILLER_0_102_165
*833 FILLER_0_102_1651
*834 FILLER_0_102_1653
*835 FILLER_0_102_1665
*836 FILLER_0_102_1677
*837 FILLER_0_102_1689
*838 FILLER_0_102_1701
*839 FILLER_0_102_1707
*840 FILLER_0_102_1709
*841 FILLER_0_102_1721
*842 FILLER_0_102_1733
*843 FILLER_0_102_1745
*844 FILLER_0_102_1757
*845 FILLER_0_102_1763
*846 FILLER_0_102_1765
*847 FILLER_0_102_177
*848 FILLER_0_102_1777
*849 FILLER_0_102_1789
*850 FILLER_0_102_1801
*851 FILLER_0_102_1813
*852 FILLER_0_102_1819
*853 FILLER_0_102_1821
*854 FILLER_0_102_1833
*855 FILLER_0_102_1845
*856 FILLER_0_102_1857
*857 FILLER_0_102_1869
*858 FILLER_0_102_1875
*859 FILLER_0_102_1877
*860 FILLER_0_102_1889
*861 FILLER_0_102_189
*862 FILLER_0_102_1901
*863 FILLER_0_102_1913
*864 FILLER_0_102_1925
*865 FILLER_0_102_195
*866 FILLER_0_102_197
*867 FILLER_0_102_209
*868 FILLER_0_102_221
*869 FILLER_0_102_233
*870 FILLER_0_102_245
*871 FILLER_0_102_251
*872 FILLER_0_102_253
*873 FILLER_0_102_265
*874 FILLER_0_102_27
*875 FILLER_0_102_277
*876 FILLER_0_102_289
*877 FILLER_0_102_29
*878 FILLER_0_102_3
*879 FILLER_0_102_301
*880 FILLER_0_102_307
*881 FILLER_0_102_309
*882 FILLER_0_102_321
*883 FILLER_0_102_333
*884 FILLER_0_102_345
*885 FILLER_0_102_357
*886 FILLER_0_102_363
*887 FILLER_0_102_365
*888 FILLER_0_102_377
*889 FILLER_0_102_389
*890 FILLER_0_102_401
*891 FILLER_0_102_41
*892 FILLER_0_102_413
*893 FILLER_0_102_419
*894 FILLER_0_102_421
*895 FILLER_0_102_433
*896 FILLER_0_102_445
*897 FILLER_0_102_457
*898 FILLER_0_102_469
*899 FILLER_0_102_475
*900 FILLER_0_102_477
*901 FILLER_0_102_489
*902 FILLER_0_102_501
*903 FILLER_0_102_513
*904 FILLER_0_102_525
*905 FILLER_0_102_53
*906 FILLER_0_102_531
*907 FILLER_0_102_533
*908 FILLER_0_102_545
*909 FILLER_0_102_557
*910 FILLER_0_102_569
*911 FILLER_0_102_581
*912 FILLER_0_102_587
*913 FILLER_0_102_589
*914 FILLER_0_102_601
*915 FILLER_0_102_613
*916 FILLER_0_102_625
*917 FILLER_0_102_637
*918 FILLER_0_102_643
*919 FILLER_0_102_645
*920 FILLER_0_102_65
*921 FILLER_0_102_657
*922 FILLER_0_102_669
*923 FILLER_0_102_681
*924 FILLER_0_102_693
*925 FILLER_0_102_699
*926 FILLER_0_102_701
*927 FILLER_0_102_713
*928 FILLER_0_102_725
*929 FILLER_0_102_737
*930 FILLER_0_102_749
*931 FILLER_0_102_755
*932 FILLER_0_102_757
*933 FILLER_0_102_769
*934 FILLER_0_102_77
*935 FILLER_0_102_781
*936 FILLER_0_102_793
*937 FILLER_0_102_805
*938 FILLER_0_102_811
*939 FILLER_0_102_813
*940 FILLER_0_102_825
*941 FILLER_0_102_83
*942 FILLER_0_102_837
*943 FILLER_0_102_849
*944 FILLER_0_102_85
*945 FILLER_0_102_861
*946 FILLER_0_102_867
*947 FILLER_0_102_869
*948 FILLER_0_102_881
*949 FILLER_0_102_893
*950 FILLER_0_102_905
*951 FILLER_0_102_917
*952 FILLER_0_102_923
*953 FILLER_0_102_925
*954 FILLER_0_102_937
*955 FILLER_0_102_949
*956 FILLER_0_102_961
*957 FILLER_0_102_97
*958 FILLER_0_102_973
*959 FILLER_0_102_979
*960 FILLER_0_102_981
*961 FILLER_0_102_993
*962 FILLER_0_103_1001
*963 FILLER_0_103_1007
*964 FILLER_0_103_1009
*965 FILLER_0_103_1021
*966 FILLER_0_103_1033
*967 FILLER_0_103_1045
*968 FILLER_0_103_105
*969 FILLER_0_103_1057
*970 FILLER_0_103_1063
*971 FILLER_0_103_1065
*972 FILLER_0_103_1077
*973 FILLER_0_103_1089
*974 FILLER_0_103_1101
*975 FILLER_0_103_111
*976 FILLER_0_103_1113
*977 FILLER_0_103_1119
*978 FILLER_0_103_1121
*979 FILLER_0_103_113
*980 FILLER_0_103_1133
*981 FILLER_0_103_1145
*982 FILLER_0_103_1157
*983 FILLER_0_103_1169
*984 FILLER_0_103_1175
*985 FILLER_0_103_1177
*986 FILLER_0_103_1189
*987 FILLER_0_103_1201
*988 FILLER_0_103_1213
*989 FILLER_0_103_1225
*990 FILLER_0_103_1231
*991 FILLER_0_103_1233
*992 FILLER_0_103_1245
*993 FILLER_0_103_125
*994 FILLER_0_103_1257
*995 FILLER_0_103_1269
*996 FILLER_0_103_1281
*997 FILLER_0_103_1287
*998 FILLER_0_103_1289
*999 FILLER_0_103_1301
*1000 FILLER_0_103_1313
*1001 FILLER_0_103_1325
*1002 FILLER_0_103_1337
*1003 FILLER_0_103_1343
*1004 FILLER_0_103_1345
*1005 FILLER_0_103_1357
*1006 FILLER_0_103_1369
*1007 FILLER_0_103_137
*1008 FILLER_0_103_1381
*1009 FILLER_0_103_1393
*1010 FILLER_0_103_1399
*1011 FILLER_0_103_1401
*1012 FILLER_0_103_1413
*1013 FILLER_0_103_1425
*1014 FILLER_0_103_1437
*1015 FILLER_0_103_1449
*1016 FILLER_0_103_1455
*1017 FILLER_0_103_1457
*1018 FILLER_0_103_1469
*1019 FILLER_0_103_1481
*1020 FILLER_0_103_149
*1021 FILLER_0_103_1493
*1022 FILLER_0_103_15
*1023 FILLER_0_103_1505
*1024 FILLER_0_103_1511
*1025 FILLER_0_103_1513
*1026 FILLER_0_103_1525
*1027 FILLER_0_103_1537
*1028 FILLER_0_103_1549
*1029 FILLER_0_103_1561
*1030 FILLER_0_103_1567
*1031 FILLER_0_103_1569
*1032 FILLER_0_103_1581
*1033 FILLER_0_103_1593
*1034 FILLER_0_103_1605
*1035 FILLER_0_103_161
*1036 FILLER_0_103_1617
*1037 FILLER_0_103_1623
*1038 FILLER_0_103_1625
*1039 FILLER_0_103_1637
*1040 FILLER_0_103_1649
*1041 FILLER_0_103_1661
*1042 FILLER_0_103_167
*1043 FILLER_0_103_1673
*1044 FILLER_0_103_1679
*1045 FILLER_0_103_1681
*1046 FILLER_0_103_169
*1047 FILLER_0_103_1693
*1048 FILLER_0_103_1705
*1049 FILLER_0_103_1717
*1050 FILLER_0_103_1729
*1051 FILLER_0_103_1735
*1052 FILLER_0_103_1737
*1053 FILLER_0_103_1749
*1054 FILLER_0_103_1761
*1055 FILLER_0_103_1773
*1056 FILLER_0_103_1785
*1057 FILLER_0_103_1791
*1058 FILLER_0_103_1793
*1059 FILLER_0_103_1805
*1060 FILLER_0_103_181
*1061 FILLER_0_103_1817
*1062 FILLER_0_103_1829
*1063 FILLER_0_103_1841
*1064 FILLER_0_103_1847
*1065 FILLER_0_103_1849
*1066 FILLER_0_103_1861
*1067 FILLER_0_103_1873
*1068 FILLER_0_103_1885
*1069 FILLER_0_103_1897
*1070 FILLER_0_103_1903
*1071 FILLER_0_103_1905
*1072 FILLER_0_103_1917
*1073 FILLER_0_103_193
*1074 FILLER_0_103_205
*1075 FILLER_0_103_217
*1076 FILLER_0_103_223
*1077 FILLER_0_103_225
*1078 FILLER_0_103_237
*1079 FILLER_0_103_249
*1080 FILLER_0_103_261
*1081 FILLER_0_103_27
*1082 FILLER_0_103_273
*1083 FILLER_0_103_279
*1084 FILLER_0_103_281
*1085 FILLER_0_103_293
*1086 FILLER_0_103_3
*1087 FILLER_0_103_305
*1088 FILLER_0_103_317
*1089 FILLER_0_103_329
*1090 FILLER_0_103_335
*1091 FILLER_0_103_337
*1092 FILLER_0_103_349
*1093 FILLER_0_103_361
*1094 FILLER_0_103_373
*1095 FILLER_0_103_385
*1096 FILLER_0_103_39
*1097 FILLER_0_103_391
*1098 FILLER_0_103_393
*1099 FILLER_0_103_405
*1100 FILLER_0_103_417
*1101 FILLER_0_103_429
*1102 FILLER_0_103_441
*1103 FILLER_0_103_447
*1104 FILLER_0_103_449
*1105 FILLER_0_103_461
*1106 FILLER_0_103_473
*1107 FILLER_0_103_485
*1108 FILLER_0_103_497
*1109 FILLER_0_103_503
*1110 FILLER_0_103_505
*1111 FILLER_0_103_51
*1112 FILLER_0_103_517
*1113 FILLER_0_103_529
*1114 FILLER_0_103_541
*1115 FILLER_0_103_55
*1116 FILLER_0_103_553
*1117 FILLER_0_103_559
*1118 FILLER_0_103_561
*1119 FILLER_0_103_57
*1120 FILLER_0_103_573
*1121 FILLER_0_103_585
*1122 FILLER_0_103_597
*1123 FILLER_0_103_609
*1124 FILLER_0_103_615
*1125 FILLER_0_103_617
*1126 FILLER_0_103_629
*1127 FILLER_0_103_641
*1128 FILLER_0_103_653
*1129 FILLER_0_103_665
*1130 FILLER_0_103_671
*1131 FILLER_0_103_673
*1132 FILLER_0_103_685
*1133 FILLER_0_103_69
*1134 FILLER_0_103_697
*1135 FILLER_0_103_709
*1136 FILLER_0_103_721
*1137 FILLER_0_103_727
*1138 FILLER_0_103_729
*1139 FILLER_0_103_741
*1140 FILLER_0_103_753
*1141 FILLER_0_103_765
*1142 FILLER_0_103_777
*1143 FILLER_0_103_783
*1144 FILLER_0_103_785
*1145 FILLER_0_103_797
*1146 FILLER_0_103_809
*1147 FILLER_0_103_81
*1148 FILLER_0_103_821
*1149 FILLER_0_103_833
*1150 FILLER_0_103_839
*1151 FILLER_0_103_841
*1152 FILLER_0_103_853
*1153 FILLER_0_103_865
*1154 FILLER_0_103_877
*1155 FILLER_0_103_889
*1156 FILLER_0_103_895
*1157 FILLER_0_103_897
*1158 FILLER_0_103_909
*1159 FILLER_0_103_921
*1160 FILLER_0_103_93
*1161 FILLER_0_103_933
*1162 FILLER_0_103_945
*1163 FILLER_0_103_951
*1164 FILLER_0_103_953
*1165 FILLER_0_103_965
*1166 FILLER_0_103_977
*1167 FILLER_0_103_989
*1168 FILLER_0_104_1005
*1169 FILLER_0_104_1017
*1170 FILLER_0_104_1029
*1171 FILLER_0_104_1035
*1172 FILLER_0_104_1037
*1173 FILLER_0_104_1049
*1174 FILLER_0_104_1061
*1175 FILLER_0_104_1073
*1176 FILLER_0_104_1085
*1177 FILLER_0_104_109
*1178 FILLER_0_104_1091
*1179 FILLER_0_104_1093
*1180 FILLER_0_104_1105
*1181 FILLER_0_104_1117
*1182 FILLER_0_104_1129
*1183 FILLER_0_104_1141
*1184 FILLER_0_104_1147
*1185 FILLER_0_104_1149
*1186 FILLER_0_104_1161
*1187 FILLER_0_104_1173
*1188 FILLER_0_104_1185
*1189 FILLER_0_104_1197
*1190 FILLER_0_104_1203
*1191 FILLER_0_104_1205
*1192 FILLER_0_104_121
*1193 FILLER_0_104_1217
*1194 FILLER_0_104_1229
*1195 FILLER_0_104_1241
*1196 FILLER_0_104_1253
*1197 FILLER_0_104_1259
*1198 FILLER_0_104_1261
*1199 FILLER_0_104_1273
*1200 FILLER_0_104_1285
*1201 FILLER_0_104_1297
*1202 FILLER_0_104_1309
*1203 FILLER_0_104_1315
*1204 FILLER_0_104_1317
*1205 FILLER_0_104_1329
*1206 FILLER_0_104_133
*1207 FILLER_0_104_1341
*1208 FILLER_0_104_1353
*1209 FILLER_0_104_1365
*1210 FILLER_0_104_1371
*1211 FILLER_0_104_1373
*1212 FILLER_0_104_1385
*1213 FILLER_0_104_139
*1214 FILLER_0_104_1397
*1215 FILLER_0_104_1409
*1216 FILLER_0_104_141
*1217 FILLER_0_104_1421
*1218 FILLER_0_104_1427
*1219 FILLER_0_104_1429
*1220 FILLER_0_104_1441
*1221 FILLER_0_104_1453
*1222 FILLER_0_104_1465
*1223 FILLER_0_104_1477
*1224 FILLER_0_104_1483
*1225 FILLER_0_104_1485
*1226 FILLER_0_104_1497
*1227 FILLER_0_104_15
*1228 FILLER_0_104_1509
*1229 FILLER_0_104_1521
*1230 FILLER_0_104_153
*1231 FILLER_0_104_1533
*1232 FILLER_0_104_1539
*1233 FILLER_0_104_1541
*1234 FILLER_0_104_1553
*1235 FILLER_0_104_1565
*1236 FILLER_0_104_1577
*1237 FILLER_0_104_1589
*1238 FILLER_0_104_1595
*1239 FILLER_0_104_1597
*1240 FILLER_0_104_1609
*1241 FILLER_0_104_1621
*1242 FILLER_0_104_1633
*1243 FILLER_0_104_1645
*1244 FILLER_0_104_165
*1245 FILLER_0_104_1651
*1246 FILLER_0_104_1653
*1247 FILLER_0_104_1665
*1248 FILLER_0_104_1677
*1249 FILLER_0_104_1689
*1250 FILLER_0_104_1701
*1251 FILLER_0_104_1707
*1252 FILLER_0_104_1709
*1253 FILLER_0_104_1721
*1254 FILLER_0_104_1733
*1255 FILLER_0_104_1745
*1256 FILLER_0_104_1757
*1257 FILLER_0_104_1763
*1258 FILLER_0_104_1765
*1259 FILLER_0_104_177
*1260 FILLER_0_104_1777
*1261 FILLER_0_104_1789
*1262 FILLER_0_104_1801
*1263 FILLER_0_104_1813
*1264 FILLER_0_104_1819
*1265 FILLER_0_104_1821
*1266 FILLER_0_104_1833
*1267 FILLER_0_104_1845
*1268 FILLER_0_104_1857
*1269 FILLER_0_104_1869
*1270 FILLER_0_104_1875
*1271 FILLER_0_104_1877
*1272 FILLER_0_104_1889
*1273 FILLER_0_104_189
*1274 FILLER_0_104_1901
*1275 FILLER_0_104_1913
*1276 FILLER_0_104_1925
*1277 FILLER_0_104_195
*1278 FILLER_0_104_197
*1279 FILLER_0_104_209
*1280 FILLER_0_104_221
*1281 FILLER_0_104_233
*1282 FILLER_0_104_245
*1283 FILLER_0_104_251
*1284 FILLER_0_104_253
*1285 FILLER_0_104_265
*1286 FILLER_0_104_27
*1287 FILLER_0_104_277
*1288 FILLER_0_104_289
*1289 FILLER_0_104_29
*1290 FILLER_0_104_3
*1291 FILLER_0_104_301
*1292 FILLER_0_104_307
*1293 FILLER_0_104_309
*1294 FILLER_0_104_321
*1295 FILLER_0_104_333
*1296 FILLER_0_104_345
*1297 FILLER_0_104_357
*1298 FILLER_0_104_363
*1299 FILLER_0_104_365
*1300 FILLER_0_104_377
*1301 FILLER_0_104_389
*1302 FILLER_0_104_401
*1303 FILLER_0_104_41
*1304 FILLER_0_104_413
*1305 FILLER_0_104_419
*1306 FILLER_0_104_421
*1307 FILLER_0_104_433
*1308 FILLER_0_104_445
*1309 FILLER_0_104_457
*1310 FILLER_0_104_469
*1311 FILLER_0_104_475
*1312 FILLER_0_104_477
*1313 FILLER_0_104_489
*1314 FILLER_0_104_501
*1315 FILLER_0_104_513
*1316 FILLER_0_104_525
*1317 FILLER_0_104_53
*1318 FILLER_0_104_531
*1319 FILLER_0_104_533
*1320 FILLER_0_104_545
*1321 FILLER_0_104_557
*1322 FILLER_0_104_569
*1323 FILLER_0_104_581
*1324 FILLER_0_104_587
*1325 FILLER_0_104_589
*1326 FILLER_0_104_601
*1327 FILLER_0_104_613
*1328 FILLER_0_104_625
*1329 FILLER_0_104_637
*1330 FILLER_0_104_643
*1331 FILLER_0_104_645
*1332 FILLER_0_104_65
*1333 FILLER_0_104_657
*1334 FILLER_0_104_669
*1335 FILLER_0_104_681
*1336 FILLER_0_104_693
*1337 FILLER_0_104_699
*1338 FILLER_0_104_701
*1339 FILLER_0_104_713
*1340 FILLER_0_104_725
*1341 FILLER_0_104_737
*1342 FILLER_0_104_749
*1343 FILLER_0_104_755
*1344 FILLER_0_104_757
*1345 FILLER_0_104_769
*1346 FILLER_0_104_77
*1347 FILLER_0_104_781
*1348 FILLER_0_104_793
*1349 FILLER_0_104_805
*1350 FILLER_0_104_811
*1351 FILLER_0_104_813
*1352 FILLER_0_104_825
*1353 FILLER_0_104_83
*1354 FILLER_0_104_837
*1355 FILLER_0_104_849
*1356 FILLER_0_104_85
*1357 FILLER_0_104_861
*1358 FILLER_0_104_867
*1359 FILLER_0_104_869
*1360 FILLER_0_104_881
*1361 FILLER_0_104_893
*1362 FILLER_0_104_905
*1363 FILLER_0_104_917
*1364 FILLER_0_104_923
*1365 FILLER_0_104_925
*1366 FILLER_0_104_937
*1367 FILLER_0_104_949
*1368 FILLER_0_104_961
*1369 FILLER_0_104_97
*1370 FILLER_0_104_973
*1371 FILLER_0_104_979
*1372 FILLER_0_104_981
*1373 FILLER_0_104_993
*1374 FILLER_0_105_1001
*1375 FILLER_0_105_1007
*1376 FILLER_0_105_1009
*1377 FILLER_0_105_1021
*1378 FILLER_0_105_1033
*1379 FILLER_0_105_1045
*1380 FILLER_0_105_105
*1381 FILLER_0_105_1057
*1382 FILLER_0_105_1063
*1383 FILLER_0_105_1065
*1384 FILLER_0_105_1077
*1385 FILLER_0_105_1089
*1386 FILLER_0_105_1101
*1387 FILLER_0_105_111
*1388 FILLER_0_105_1113
*1389 FILLER_0_105_1119