*SPEF "ieee 1481-1999"
*DESIGN "riscv_pipeline_top"
*DATE "11:11:11 Fri 11 11, 1111"
*VENDOR "OpenRCX"
*PROGRAM "Parallel Extraction"
*VERSION "1.0"
*DESIGN_FLOW "NAME_SCOPE LOCAL" "PIN_CAP NONE"
*DIVIDER /
*DELIMITER :
*BUS_DELIMITER []
*T_UNIT 1 NS
*C_UNIT 1 PF
*R_UNIT 1 OHM
*L_UNIT 1 HENRY

*NAME_MAP
*1 net14
*2 net24
*3 net25
*4 net26
*5 net27
*6 net28
*7 net29
*8 net30
*9 net31
*10 net32
*11 net33
*12 net15
*13 net34
*14 net35
*15 net36
*16 net37
*17 net38
*18 net39
*19 net40
*20 net41
*21 net42
*22 net43
*23 net16
*24 net44
*25 net45
*26 net17
*27 net18
*28 net19
*29 net20
*30 net21
*31 net22
*32 net23
*33 M_AXI_ARREADY
*34 net46
*35 net47
*36 net57
*37 net58
*38 net59
*39 net60
*40 net61
*41 net62
*42 net63
*43 net64
*44 net65
*45 net66
*46 net48
*47 net67
*48 net68
*49 net69
*50 net70
*51 net71
*52 net72
*53 net73
*54 net74
*55 net75
*56 net76
*57 net49
*58 net77
*59 net78
*60 net50
*61 net51
*62 net52
*63 net53
*64 net54
*65 net55
*66 net56
*67 M_AXI_AWREADY
*68 net79
*69 M_AXI_BREADY
*70 M_AXI_BRESP[0]
*71 M_AXI_BRESP[1]
*72 M_AXI_BVALID
*73 M_AXI_RDATA[0]
*74 M_AXI_RDATA[10]
*75 M_AXI_RDATA[11]
*76 M_AXI_RDATA[12]
*77 M_AXI_RDATA[13]
*78 M_AXI_RDATA[14]
*79 M_AXI_RDATA[15]
*80 M_AXI_RDATA[16]
*81 M_AXI_RDATA[17]
*82 M_AXI_RDATA[18]
*83 M_AXI_RDATA[19]
*84 M_AXI_RDATA[1]
*85 M_AXI_RDATA[20]
*86 M_AXI_RDATA[21]
*87 M_AXI_RDATA[22]
*88 M_AXI_RDATA[23]
*89 M_AXI_RDATA[24]
*90 M_AXI_RDATA[25]
*91 M_AXI_RDATA[26]
*92 M_AXI_RDATA[27]
*93 M_AXI_RDATA[28]
*94 M_AXI_RDATA[29]
*95 M_AXI_RDATA[2]
*96 M_AXI_RDATA[30]
*97 M_AXI_RDATA[31]
*98 M_AXI_RDATA[3]
*99 M_AXI_RDATA[4]
*100 M_AXI_RDATA[5]
*101 M_AXI_RDATA[6]
*102 M_AXI_RDATA[7]
*103 M_AXI_RDATA[8]
*104 M_AXI_RDATA[9]
*105 M_AXI_RREADY
*106 M_AXI_RRESP[0]
*107 M_AXI_RRESP[1]
*108 M_AXI_RVALID
*109 net80
*110 net90
*111 net91
*112 net92
*113 net93
*114 net94
*115 net95
*116 net96
*117 net97
*118 net98
*119 net99
*120 net81
*121 net100
*122 net101
*123 net102
*124 net103
*125 net104
*126 net105
*127 net106
*128 net107
*129 net108
*130 net109
*131 net82
*132 net110
*133 net111
*134 net83
*135 net84
*136 net85
*137 net86
*138 net87
*139 net88
*140 net89
*141 M_AXI_WREADY
*142 net125
*143 net112
*144 net113
*145 net114
*146 M_AXI_WVALID
*149 clk
*150 net115
*151 net116
*152 net117
*153 net118
*154 net119
*155 net120
*156 net121
*157 net122
*158 net123
*159 net124
*160 rst_n
*161 AXI_BRIDGE\.clk
*162 AXI_BRIDGE\.state\[0\]
*163 AXI_BRIDGE\.state\[1\]
*164 AXI_BRIDGE\.state\[2\]
*165 AXI_BRIDGE\.state\[3\]
*166 AXI_BRIDGE\.state\[4\]
*167 AXI_BRIDGE\.state\[5\]
*168 _000_
*169 _001_
*170 _002_
*171 _003_
*172 _004_
*173 _005_
*174 _006_
*175 _007_
*176 _008_
*177 _009_
*178 _010_
*179 _011_
*180 _012_
*181 _013_
*182 _014_
*183 _015_
*184 _016_
*185 _017_
*186 _018_
*187 _019_
*188 _020_
*189 _021_
*190 _022_
*191 _023_
*192 _024_
*193 _025_
*194 _026_
*195 _027_
*196 _028_
*197 _029_
*198 _030_
*199 _031_
*200 _032_
*201 _033_
*202 _034_
*203 _035_
*204 _036_
*205 _037_
*206 _038_
*207 _039_
*208 _040_
*209 _041_
*210 _042_
*211 _043_
*212 _044_
*213 _045_
*214 _046_
*215 _047_
*216 _048_
*217 _049_
*218 _050_
*219 _051_
*220 _052_
*221 _053_
*222 _054_
*223 _055_
*224 _056_
*225 _057_
*226 _058_
*227 _059_
*228 _060_
*229 _061_
*230 _062_
*231 _063_
*232 _064_
*233 _065_
*234 _066_
*235 _067_
*236 _068_
*237 _069_
*238 _070_
*239 _071_
*240 _072_
*241 _073_
*242 _074_
*243 _075_
*244 _076_
*245 _077_
*246 _078_
*247 _079_
*248 _080_
*249 _081_
*250 _082_
*251 _083_
*252 _084_
*253 _085_
*254 _086_
*255 _087_
*256 _088_
*257 _089_
*258 _090_
*259 _091_
*260 _092_
*261 clknet_0_clk
*262 clknet_1_0__leaf_clk
*263 clknet_1_1__leaf_clk
*264 counter\[0\]
*265 counter\[10\]
*266 counter\[11\]
*267 counter\[12\]
*268 counter\[13\]
*269 counter\[14\]
*270 counter\[15\]
*271 counter\[16\]
*272 counter\[17\]
*273 counter\[18\]
*274 counter\[19\]
*275 counter\[1\]
*276 counter\[20\]
*277 counter\[21\]
*278 counter\[22\]
*279 counter\[23\]
*280 counter\[24\]
*281 counter\[2\]
*282 counter\[3\]
*283 counter\[4\]
*284 counter\[5\]
*285 counter\[6\]
*286 counter\[7\]
*287 counter\[8\]
*288 counter\[9\]
*289 net1
*290 net10
*291 net11
*292 net12
*293 net126
*294 net127
*295 net128
*296 net129
*297 net13
*298 net130
*299 net131
*300 net132
*301 net133
*302 net134
*303 net135
*304 net136
*305 net137
*306 net138
*307 net139
*308 net140
*309 net141
*310 net142
*311 net2
*312 net3
*313 net4
*314 net5
*315 net6
*316 net7
*317 net8
*318 net9
*319 ANTENNA_1
*320 FILLER_0_0_1001
*321 FILLER_0_0_1007
*322 FILLER_0_0_1009
*323 FILLER_0_0_1021
*324 FILLER_0_0_1029
*325 FILLER_0_0_1035
*326 FILLER_0_0_1037
*327 FILLER_0_0_1049
*328 FILLER_0_0_109
*329 FILLER_0_0_113
*330 FILLER_0_0_121
*331 FILLER_0_0_125
*332 FILLER_0_0_137
*333 FILLER_0_0_141
*334 FILLER_0_0_153
*335 FILLER_0_0_165
*336 FILLER_0_0_169
*337 FILLER_0_0_174
*338 FILLER_0_0_18
*339 FILLER_0_0_186
*340 FILLER_0_0_194
*341 FILLER_0_0_203
*342 FILLER_0_0_215
*343 FILLER_0_0_223
*344 FILLER_0_0_225
*345 FILLER_0_0_230
*346 FILLER_0_0_242
*347 FILLER_0_0_250
*348 FILLER_0_0_253
*349 FILLER_0_0_258
*350 FILLER_0_0_26
*351 FILLER_0_0_270
*352 FILLER_0_0_278
*353 FILLER_0_0_281
*354 FILLER_0_0_286
*355 FILLER_0_0_29
*356 FILLER_0_0_298
*357 FILLER_0_0_306
*358 FILLER_0_0_309
*359 FILLER_0_0_321
*360 FILLER_0_0_329
*361 FILLER_0_0_335
*362 FILLER_0_0_337
*363 FILLER_0_0_349
*364 FILLER_0_0_361
*365 FILLER_0_0_365
*366 FILLER_0_0_37
*367 FILLER_0_0_377
*368 FILLER_0_0_385
*369 FILLER_0_0_391
*370 FILLER_0_0_393
*371 FILLER_0_0_405
*372 FILLER_0_0_41
*373 FILLER_0_0_413
*374 FILLER_0_0_419
*375 FILLER_0_0_421
*376 FILLER_0_0_433
*377 FILLER_0_0_441
*378 FILLER_0_0_447
*379 FILLER_0_0_449
*380 FILLER_0_0_461
*381 FILLER_0_0_473
*382 FILLER_0_0_477
*383 FILLER_0_0_489
*384 FILLER_0_0_501
*385 FILLER_0_0_505
*386 FILLER_0_0_517
*387 FILLER_0_0_527
*388 FILLER_0_0_53
*389 FILLER_0_0_531
*390 FILLER_0_0_533
*391 FILLER_0_0_545
*392 FILLER_0_0_557
*393 FILLER_0_0_561
*394 FILLER_0_0_57
*395 FILLER_0_0_573
*396 FILLER_0_0_580
*397 FILLER_0_0_589
*398 FILLER_0_0_6
*399 FILLER_0_0_601
*400 FILLER_0_0_608
*401 FILLER_0_0_617
*402 FILLER_0_0_629
*403 FILLER_0_0_636
*404 FILLER_0_0_645
*405 FILLER_0_0_65
*406 FILLER_0_0_653
*407 FILLER_0_0_657
*408 FILLER_0_0_669
*409 FILLER_0_0_673
*410 FILLER_0_0_685
*411 FILLER_0_0_69
*412 FILLER_0_0_697
*413 FILLER_0_0_701
*414 FILLER_0_0_713
*415 FILLER_0_0_725
*416 FILLER_0_0_729
*417 FILLER_0_0_737
*418 FILLER_0_0_741
*419 FILLER_0_0_753
*420 FILLER_0_0_757
*421 FILLER_0_0_765
*422 FILLER_0_0_769
*423 FILLER_0_0_781
*424 FILLER_0_0_785
*425 FILLER_0_0_793
*426 FILLER_0_0_797
*427 FILLER_0_0_809
*428 FILLER_0_0_81
*429 FILLER_0_0_813
*430 FILLER_0_0_818
*431 FILLER_0_0_830
*432 FILLER_0_0_838
*433 FILLER_0_0_841
*434 FILLER_0_0_846
*435 FILLER_0_0_85
*436 FILLER_0_0_858
*437 FILLER_0_0_866
*438 FILLER_0_0_869
*439 FILLER_0_0_874
*440 FILLER_0_0_886
*441 FILLER_0_0_894
*442 FILLER_0_0_897
*443 FILLER_0_0_902
*444 FILLER_0_0_914
*445 FILLER_0_0_922
*446 FILLER_0_0_925
*447 FILLER_0_0_937
*448 FILLER_0_0_949
*449 FILLER_0_0_953
*450 FILLER_0_0_958
*451 FILLER_0_0_97
*452 FILLER_0_0_970
*453 FILLER_0_0_978
*454 FILLER_0_0_981
*455 FILLER_0_0_993
*456 FILLER_0_100_1005
*457 FILLER_0_100_1017
*458 FILLER_0_100_1029
*459 FILLER_0_100_1035
*460 FILLER_0_100_1037
*461 FILLER_0_100_1049
*462 FILLER_0_100_1057
*463 FILLER_0_100_109
*464 FILLER_0_100_121
*465 FILLER_0_100_133
*466 FILLER_0_100_139
*467 FILLER_0_100_141
*468 FILLER_0_100_15
*469 FILLER_0_100_153
*470 FILLER_0_100_165
*471 FILLER_0_100_177
*472 FILLER_0_100_189
*473 FILLER_0_100_195
*474 FILLER_0_100_197
*475 FILLER_0_100_209
*476 FILLER_0_100_221
*477 FILLER_0_100_233
*478 FILLER_0_100_245
*479 FILLER_0_100_251
*480 FILLER_0_100_253
*481 FILLER_0_100_265
*482 FILLER_0_100_27
*483 FILLER_0_100_277
*484 FILLER_0_100_289
*485 FILLER_0_100_29
*486 FILLER_0_100_3
*487 FILLER_0_100_301
*488 FILLER_0_100_307
*489 FILLER_0_100_309
*490 FILLER_0_100_321
*491 FILLER_0_100_333
*492 FILLER_0_100_345
*493 FILLER_0_100_357
*494 FILLER_0_100_363
*495 FILLER_0_100_365
*496 FILLER_0_100_377
*497 FILLER_0_100_389
*498 FILLER_0_100_401
*499 FILLER_0_100_41
*500 FILLER_0_100_413
*501 FILLER_0_100_419
*502 FILLER_0_100_421
*503 FILLER_0_100_433
*504 FILLER_0_100_445
*505 FILLER_0_100_457
*506 FILLER_0_100_469
*507 FILLER_0_100_475
*508 FILLER_0_100_477
*509 FILLER_0_100_489
*510 FILLER_0_100_501
*511 FILLER_0_100_513
*512 FILLER_0_100_525
*513 FILLER_0_100_53
*514 FILLER_0_100_531
*515 FILLER_0_100_533
*516 FILLER_0_100_545
*517 FILLER_0_100_557
*518 FILLER_0_100_569
*519 FILLER_0_100_581
*520 FILLER_0_100_587
*521 FILLER_0_100_589
*522 FILLER_0_100_601
*523 FILLER_0_100_613
*524 FILLER_0_100_625
*525 FILLER_0_100_637
*526 FILLER_0_100_643
*527 FILLER_0_100_645
*528 FILLER_0_100_65
*529 FILLER_0_100_657
*530 FILLER_0_100_669
*531 FILLER_0_100_681
*532 FILLER_0_100_693
*533 FILLER_0_100_699
*534 FILLER_0_100_701
*535 FILLER_0_100_713
*536 FILLER_0_100_725
*537 FILLER_0_100_737
*538 FILLER_0_100_749
*539 FILLER_0_100_755
*540 FILLER_0_100_757
*541 FILLER_0_100_769
*542 FILLER_0_100_77
*543 FILLER_0_100_781
*544 FILLER_0_100_793
*545 FILLER_0_100_805
*546 FILLER_0_100_811
*547 FILLER_0_100_813
*548 FILLER_0_100_825
*549 FILLER_0_100_83
*550 FILLER_0_100_837
*551 FILLER_0_100_849
*552 FILLER_0_100_85
*553 FILLER_0_100_861
*554 FILLER_0_100_867
*555 FILLER_0_100_889
*556 FILLER_0_100_899
*557 FILLER_0_100_911
*558 FILLER_0_100_923
*559 FILLER_0_100_932
*560 FILLER_0_100_958
*561 FILLER_0_100_97
*562 FILLER_0_100_970
*563 FILLER_0_100_978
*564 FILLER_0_100_981
*565 FILLER_0_100_993
*566 FILLER_0_101_1005
*567 FILLER_0_101_1009
*568 FILLER_0_101_1021
*569 FILLER_0_101_1033
*570 FILLER_0_101_1045
*571 FILLER_0_101_105
*572 FILLER_0_101_1057
*573 FILLER_0_101_111
*574 FILLER_0_101_113
*575 FILLER_0_101_125
*576 FILLER_0_101_137
*577 FILLER_0_101_149
*578 FILLER_0_101_161
*579 FILLER_0_101_167
*580 FILLER_0_101_169
*581 FILLER_0_101_18
*582 FILLER_0_101_181
*583 FILLER_0_101_193
*584 FILLER_0_101_205
*585 FILLER_0_101_217
*586 FILLER_0_101_223
*587 FILLER_0_101_225
*588 FILLER_0_101_237
*589 FILLER_0_101_249
*590 FILLER_0_101_261
*591 FILLER_0_101_273
*592 FILLER_0_101_279
*593 FILLER_0_101_281
*594 FILLER_0_101_293
*595 FILLER_0_101_30
*596 FILLER_0_101_305
*597 FILLER_0_101_317
*598 FILLER_0_101_329
*599 FILLER_0_101_335
*600 FILLER_0_101_337
*601 FILLER_0_101_349
*602 FILLER_0_101_361
*603 FILLER_0_101_373
*604 FILLER_0_101_385
*605 FILLER_0_101_391
*606 FILLER_0_101_393
*607 FILLER_0_101_405
*608 FILLER_0_101_417
*609 FILLER_0_101_42
*610 FILLER_0_101_429
*611 FILLER_0_101_441
*612 FILLER_0_101_447
*613 FILLER_0_101_449
*614 FILLER_0_101_461
*615 FILLER_0_101_473
*616 FILLER_0_101_485
*617 FILLER_0_101_497
*618 FILLER_0_101_503
*619 FILLER_0_101_505
*620 FILLER_0_101_517
*621 FILLER_0_101_529
*622 FILLER_0_101_54
*623 FILLER_0_101_541
*624 FILLER_0_101_553
*625 FILLER_0_101_559
*626 FILLER_0_101_561
*627 FILLER_0_101_57
*628 FILLER_0_101_573
*629 FILLER_0_101_585
*630 FILLER_0_101_597
*631 FILLER_0_101_6
*632 FILLER_0_101_609
*633 FILLER_0_101_615
*634 FILLER_0_101_617
*635 FILLER_0_101_629
*636 FILLER_0_101_641
*637 FILLER_0_101_653
*638 FILLER_0_101_665
*639 FILLER_0_101_671
*640 FILLER_0_101_673
*641 FILLER_0_101_685
*642 FILLER_0_101_69
*643 FILLER_0_101_697
*644 FILLER_0_101_709
*645 FILLER_0_101_721
*646 FILLER_0_101_727
*647 FILLER_0_101_729
*648 FILLER_0_101_741
*649 FILLER_0_101_753
*650 FILLER_0_101_765
*651 FILLER_0_101_777
*652 FILLER_0_101_783
*653 FILLER_0_101_785
*654 FILLER_0_101_797
*655 FILLER_0_101_809
*656 FILLER_0_101_81
*657 FILLER_0_101_821
*658 FILLER_0_101_833
*659 FILLER_0_101_839
*660 FILLER_0_101_864
*661 FILLER_0_101_872
*662 FILLER_0_101_881
*663 FILLER_0_101_892
*664 FILLER_0_101_897
*665 FILLER_0_101_905
*666 FILLER_0_101_917
*667 FILLER_0_101_929
*668 FILLER_0_101_93
*669 FILLER_0_101_973
*670 FILLER_0_101_985
*671 FILLER_0_101_997
*672 FILLER_0_102_1005
*673 FILLER_0_102_1017
*674 FILLER_0_102_1029
*675 FILLER_0_102_1035
*676 FILLER_0_102_1037
*677 FILLER_0_102_1049
*678 FILLER_0_102_1055
*679 FILLER_0_102_109
*680 FILLER_0_102_121
*681 FILLER_0_102_133
*682 FILLER_0_102_139
*683 FILLER_0_102_141
*684 FILLER_0_102_15
*685 FILLER_0_102_153
*686 FILLER_0_102_165
*687 FILLER_0_102_177
*688 FILLER_0_102_189
*689 FILLER_0_102_195
*690 FILLER_0_102_197
*691 FILLER_0_102_209
*692 FILLER_0_102_221
*693 FILLER_0_102_233
*694 FILLER_0_102_245
*695 FILLER_0_102_251
*696 FILLER_0_102_253
*697 FILLER_0_102_265
*698 FILLER_0_102_27
*699 FILLER_0_102_277
*700 FILLER_0_102_289
*701 FILLER_0_102_29
*702 FILLER_0_102_3
*703 FILLER_0_102_301
*704 FILLER_0_102_307
*705 FILLER_0_102_309
*706 FILLER_0_102_321
*707 FILLER_0_102_333
*708 FILLER_0_102_345
*709 FILLER_0_102_357
*710 FILLER_0_102_363
*711 FILLER_0_102_365
*712 FILLER_0_102_377
*713 FILLER_0_102_389
*714 FILLER_0_102_401
*715 FILLER_0_102_41
*716 FILLER_0_102_413
*717 FILLER_0_102_419
*718 FILLER_0_102_421
*719 FILLER_0_102_433
*720 FILLER_0_102_445
*721 FILLER_0_102_457
*722 FILLER_0_102_469
*723 FILLER_0_102_475
*724 FILLER_0_102_477
*725 FILLER_0_102_489
*726 FILLER_0_102_501
*727 FILLER_0_102_513
*728 FILLER_0_102_525
*729 FILLER_0_102_53
*730 FILLER_0_102_531
*731 FILLER_0_102_533
*732 FILLER_0_102_545
*733 FILLER_0_102_557
*734 FILLER_0_102_569
*735 FILLER_0_102_581
*736 FILLER_0_102_587
*737 FILLER_0_102_589
*738 FILLER_0_102_601
*739 FILLER_0_102_613
*740 FILLER_0_102_625
*741 FILLER_0_102_637
*742 FILLER_0_102_643
*743 FILLER_0_102_645
*744 FILLER_0_102_65
*745 FILLER_0_102_657
*746 FILLER_0_102_669
*747 FILLER_0_102_681
*748 FILLER_0_102_693
*749 FILLER_0_102_699
*750 FILLER_0_102_701
*751 FILLER_0_102_713
*752 FILLER_0_102_725
*753 FILLER_0_102_737
*754 FILLER_0_102_749
*755 FILLER_0_102_755
*756 FILLER_0_102_757
*757 FILLER_0_102_769
*758 FILLER_0_102_77
*759 FILLER_0_102_781
*760 FILLER_0_102_793
*761 FILLER_0_102_805
*762 FILLER_0_102_811
*763 FILLER_0_102_813
*764 FILLER_0_102_825
*765 FILLER_0_102_83
*766 FILLER_0_102_85
*767 FILLER_0_102_857
*768 FILLER_0_102_865
*769 FILLER_0_102_869
*770 FILLER_0_102_881
*771 FILLER_0_102_889
*772 FILLER_0_102_921
*773 FILLER_0_102_925
*774 FILLER_0_102_937
*775 FILLER_0_102_949
*776 FILLER_0_102_961
*777 FILLER_0_102_97
*778 FILLER_0_102_973
*779 FILLER_0_102_979
*780 FILLER_0_102_981
*781 FILLER_0_102_993
*782 FILLER_0_103_1001
*783 FILLER_0_103_1007
*784 FILLER_0_103_1009
*785 FILLER_0_103_1021
*786 FILLER_0_103_1033
*787 FILLER_0_103_1045
*788 FILLER_0_103_105
*789 FILLER_0_103_1057
*790 FILLER_0_103_111
*791 FILLER_0_103_113
*792 FILLER_0_103_125
*793 FILLER_0_103_137
*794 FILLER_0_103_149
*795 FILLER_0_103_15
*796 FILLER_0_103_161
*797 FILLER_0_103_167
*798 FILLER_0_103_169
*799 FILLER_0_103_181
*800 FILLER_0_103_193
*801 FILLER_0_103_205
*802 FILLER_0_103_217
*803 FILLER_0_103_223
*804 FILLER_0_103_225
*805 FILLER_0_103_237
*806 FILLER_0_103_249
*807 FILLER_0_103_261
*808 FILLER_0_103_27
*809 FILLER_0_103_273
*810 FILLER_0_103_279
*811 FILLER_0_103_281
*812 FILLER_0_103_293
*813 FILLER_0_103_3
*814 FILLER_0_103_305
*815 FILLER_0_103_317
*816 FILLER_0_103_329
*817 FILLER_0_103_335
*818 FILLER_0_103_337
*819 FILLER_0_103_349
*820 FILLER_0_103_361
*821 FILLER_0_103_373
*822 FILLER_0_103_385
*823 FILLER_0_103_39
*824 FILLER_0_103_391
*825 FILLER_0_103_393
*826 FILLER_0_103_405
*827 FILLER_0_103_417
*828 FILLER_0_103_429
*829 FILLER_0_103_441
*830 FILLER_0_103_447
*831 FILLER_0_103_449
*832 FILLER_0_103_461
*833 FILLER_0_103_473
*834 FILLER_0_103_485
*835 FILLER_0_103_497
*836 FILLER_0_103_503
*837 FILLER_0_103_505
*838 FILLER_0_103_51
*839 FILLER_0_103_517
*840 FILLER_0_103_529
*841 FILLER_0_103_541
*842 FILLER_0_103_55
*843 FILLER_0_103_553
*844 FILLER_0_103_559
*845 FILLER_0_103_561
*846 FILLER_0_103_57
*847 FILLER_0_103_573
*848 FILLER_0_103_585
*849 FILLER_0_103_597
*850 FILLER_0_103_609
*851 FILLER_0_103_615
*852 FILLER_0_103_617
*853 FILLER_0_103_629
*854 FILLER_0_103_641
*855 FILLER_0_103_653
*856 FILLER_0_103_665
*857 FILLER_0_103_671
*858 FILLER_0_103_673
*859 FILLER_0_103_685
*860 FILLER_0_103_69
*861 FILLER_0_103_697
*862 FILLER_0_103_709
*863 FILLER_0_103_721
*864 FILLER_0_103_727
*865 FILLER_0_103_729
*866 FILLER_0_103_741
*867 FILLER_0_103_753
*868 FILLER_0_103_765
*869 FILLER_0_103_777
*870 FILLER_0_103_783
*871 FILLER_0_103_785
*872 FILLER_0_103_797
*873 FILLER_0_103_809
*874 FILLER_0_103_81
*875 FILLER_0_103_821
*876 FILLER_0_103_833
*877 FILLER_0_103_841
*878 FILLER_0_103_852
*879 FILLER_0_103_864
*880 FILLER_0_103_876
*881 FILLER_0_103_888
*882 FILLER_0_103_897
*883 FILLER_0_103_909
*884 FILLER_0_103_921
*885 FILLER_0_103_93
*886 FILLER_0_103_933
*887 FILLER_0_103_945
*888 FILLER_0_103_951
*889 FILLER_0_103_953
*890 FILLER_0_103_965
*891 FILLER_0_103_977
*892 FILLER_0_103_989
*893 FILLER_0_104_1005
*894 FILLER_0_104_1017
*895 FILLER_0_104_1029
*896 FILLER_0_104_1035
*897 FILLER_0_104_1037
*898 FILLER_0_104_1049
*899 FILLER_0_104_1057
*900 FILLER_0_104_109
*901 FILLER_0_104_121
*902 FILLER_0_104_133
*903 FILLER_0_104_139
*904 FILLER_0_104_141
*905 FILLER_0_104_15
*906 FILLER_0_104_153
*907 FILLER_0_104_165
*908 FILLER_0_104_177
*909 FILLER_0_104_189
*910 FILLER_0_104_195
*911 FILLER_0_104_197
*912 FILLER_0_104_209
*913 FILLER_0_104_221
*914 FILLER_0_104_233
*915 FILLER_0_104_245
*916 FILLER_0_104_251
*917 FILLER_0_104_253
*918 FILLER_0_104_265
*919 FILLER_0_104_27
*920 FILLER_0_104_277
*921 FILLER_0_104_289
*922 FILLER_0_104_29
*923 FILLER_0_104_3
*924 FILLER_0_104_301
*925 FILLER_0_104_307
*926 FILLER_0_104_309
*927 FILLER_0_104_321
*928 FILLER_0_104_333
*929 FILLER_0_104_345
*930 FILLER_0_104_357
*931 FILLER_0_104_363
*932 FILLER_0_104_365
*933 FILLER_0_104_377
*934 FILLER_0_104_389
*935 FILLER_0_104_401
*936 FILLER_0_104_41
*937 FILLER_0_104_413
*938 FILLER_0_104_419
*939 FILLER_0_104_421
*940 FILLER_0_104_433
*941 FILLER_0_104_445
*942 FILLER_0_104_457
*943 FILLER_0_104_469
*944 FILLER_0_104_475
*945 FILLER_0_104_477
*946 FILLER_0_104_489
*947 FILLER_0_104_501
*948 FILLER_0_104_513
*949 FILLER_0_104_525
*950 FILLER_0_104_53
*951 FILLER_0_104_531
*952 FILLER_0_104_533
*953 FILLER_0_104_545
*954 FILLER_0_104_557
*955 FILLER_0_104_569
*956 FILLER_0_104_581
*957 FILLER_0_104_587
*958 FILLER_0_104_589
*959 FILLER_0_104_601
*960 FILLER_0_104_613
*961 FILLER_0_104_625
*962 FILLER_0_104_637
*963 FILLER_0_104_643
*964 FILLER_0_104_645
*965 FILLER_0_104_65
*966 FILLER_0_104_657
*967 FILLER_0_104_669
*968 FILLER_0_104_681
*969 FILLER_0_104_693
*970 FILLER_0_104_699
*971 FILLER_0_104_701
*972 FILLER_0_104_713
*973 FILLER_0_104_725
*974 FILLER_0_104_737
*975 FILLER_0_104_749
*976 FILLER_0_104_755
*977 FILLER_0_104_757
*978 FILLER_0_104_769
*979 FILLER_0_104_77
*980 FILLER_0_104_781
*981 FILLER_0_104_793
*982 FILLER_0_104_805
*983 FILLER_0_104_811
*984 FILLER_0_104_813
*985 FILLER_0_104_825
*986 FILLER_0_104_83
*987 FILLER_0_104_837
*988 FILLER_0_104_846
*989 FILLER_0_104_85
*990 FILLER_0_104_857
*991 FILLER_0_104_865
*992 FILLER_0_104_869
*993 FILLER_0_104_881
*994 FILLER_0_104_893
*995 FILLER_0_104_905
*996 FILLER_0_104_917
*997 FILLER_0_104_923
*998 FILLER_0_104_933
*999 FILLER_0_104_945
*1000 FILLER_0_104_957
*1001 FILLER_0_104_969
*1002 FILLER_0_104_97
*1003 FILLER_0_104_977
*1004 FILLER_0_104_981
*1005 FILLER_0_104_993
*1006 FILLER_0_105_1001
*1007 FILLER_0_105_1007
*1008 FILLER_0_105_1009
*1009 FILLER_0_105_1021
*1010 FILLER_0_105_1033
*1011 FILLER_0_105_1045
*1012 FILLER_0_105_105
*1013 FILLER_0_105_1057
*1014 FILLER_0_105_111
*1015 FILLER_0_105_113
*1016 FILLER_0_105_125
*1017 FILLER_0_105_137
*1018 FILLER_0_105_149
*1019 FILLER_0_105_15
*1020 FILLER_0_105_161
*1021 FILLER_0_105_167
*1022 FILLER_0_105_169
*1023 FILLER_0_105_181
*1024 FILLER_0_105_193
*1025 FILLER_0_105_205
*1026 FILLER_0_105_217
*1027 FILLER_0_105_223
*1028 FILLER_0_105_225
*1029 FILLER_0_105_237
*1030 FILLER_0_105_249
*1031 FILLER_0_105_261
*1032 FILLER_0_105_27
*1033 FILLER_0_105_273
*1034 FILLER_0_105_279
*1035 FILLER_0_105_281
*1036 FILLER_0_105_293
*1037 FILLER_0_105_3
*1038 FILLER_0_105_305
*1039 FILLER_0_105_317
*1040 FILLER_0_105_329
*1041 FILLER_0_105_335
*1042 FILLER_0_105_337
*1043 FILLER_0_105_349
*1044 FILLER_0_105_361
*1045 FILLER_0_105_373
*1046 FILLER_0_105_385
*1047 FILLER_0_105_39
*1048 FILLER_0_105_391
*1049 FILLER_0_105_393
*1050 FILLER_0_105_405
*1051 FILLER_0_105_417
*1052 FILLER_0_105_429
*1053 FILLER_0_105_441
*1054 FILLER_0_105_447
*1055 FILLER_0_105_449
*1056 FILLER_0_105_461
*1057 FILLER_0_105_473
*1058 FILLER_0_105_485
*1059 FILLER_0_105_497
*1060 FILLER_0_105_503
*1061 FILLER_0_105_505
*1062 FILLER_0_105_51
*1063 FILLER_0_105_517
*1064 FILLER_0_105_529
*1065 FILLER_0_105_541
*1066 FILLER_0_105_55
*1067 FILLER_0_105_553
*1068 FILLER_0_105_559
*1069 FILLER_0_105_561
*1070 FILLER_0_105_57
*1071 FILLER_0_105_573
*1072 FILLER_0_105_585
*1073 FILLER_0_105_597
*1074 FILLER_0_105_609
*1075 FILLER_0_105_615
*1076 FILLER_0_105_617
*1077 FILLER_0_105_629
*1078 FILLER_0_105_641
*1079 FILLER_0_105_653
*1080 FILLER_0_105_665
*1081 FILLER_0_105_671
*1082 FILLER_0_105_673
*1083 FILLER_0_105_685
*1084 FILLER_0_105_69
*1085 FILLER_0_105_697
*1086 FILLER_0_105_709
*1087 FILLER_0_105_721
*1088 FILLER_0_105_727
*1089 FILLER_0_105_729
*1090 FILLER_0_105_741
*1091 FILLER_0_105_753
*1092 FILLER_0_105_765
*1093 FILLER_0_105_777
*1094 FILLER_0_105_783
*1095 FILLER_0_105_785
*1096 FILLER_0_105_797
*1097 FILLER_0_105_809
*1098 FILLER_0_105_81
*1099 FILLER_0_105_821
*1100 FILLER_0_105_833
*1101 FILLER_0_105_839
*1102 FILLER_0_105_841
*1103 FILLER_0_105_849
*1104 FILLER_0_105_858
*1105 FILLER_0_105_891
*1106 FILLER_0_105_895
*1107 FILLER_0_105_897
*1108 FILLER_0_105_93
*1109 FILLER_0_105_947
*1110 FILLER_0_105_951
*1111 FILLER_0_105_953
*1112 FILLER_0_105_965
*1113 FILLER_0_105_977
*1114 FILLER_0_105_989
*1115 FILLER_0_106_1005
*1116 FILLER_0_106_1017
*1117 FILLER_0_106_1029
*1118 FILLER_0_106_1035
*1119 FILLER_0_106_1037
*1120 FILLER_0_106_1049
*1121 FILLER_0_106_1057
*1122 FILLER_0_106_109
*1123 FILLER_0_106_121
*1124 FILLER_0_106_133
*1125 FILLER_0_106_139
*1126 FILLER_0_106_141
*1127 FILLER_0_106_153
*1128 FILLER_0_106_165
*1129 FILLER_0_106_177
*1130 FILLER_0_106_18
*1131 FILLER_0_106_189
*1132 FILLER_0_106_195
*1133 FILLER_0_106_197
*1134 FILLER_0_106_209
*1135 FILLER_0_106_221
*1136 FILLER_0_106_233
*1137 FILLER_0_106_245
*1138 FILLER_0_106_251
*1139 FILLER_0_106_253
*1140 FILLER_0_106_26
*1141 FILLER_0_106_265
*1142 FILLER_0_106_277
*1143 FILLER_0_106_289
*1144 FILLER_0_106_29
*1145 FILLER_0_106_301
*1146 FILLER_0_106_307
*1147 FILLER_0_106_309
*1148 FILLER_0_106_321
*1149 FILLER_0_106_333
*1150 FILLER_0_106_345
*1151 FILLER_0_106_357
*1152 FILLER_0_106_363
*1153 FILLER_0_106_365
*1154 FILLER_0_106_377
*1155 FILLER_0_106_389
*1156 FILLER_0_106_401
*1157 FILLER_0_106_41
*1158 FILLER_0_106_413
*1159 FILLER_0_106_419
*1160 FILLER_0_106_421
*1161 FILLER_0_106_433
*1162 FILLER_0_106_445
*1163 FILLER_0_106_457
*1164 FILLER_0_106_469
*1165 FILLER_0_106_475
*1166 FILLER_0_106_477
*1167 FILLER_0_106_489
*1168 FILLER_0_106_501
*1169 FILLER_0_106_513
*1170 FILLER_0_106_525
*1171 FILLER_0_106_53
*1172 FILLER_0_106_531
*1173 FILLER_0_106_533
*1174 FILLER_0_106_545
*1175 FILLER_0_106_557
*1176 FILLER_0_106_569
*1177 FILLER_0_106_581
*1178 FILLER_0_106_587
*1179 FILLER_0_106_589
*1180 FILLER_0_106_6
*1181 FILLER_0_106_601
*1182 FILLER_0_106_613
*1183 FILLER_0_106_625
*1184 FILLER_0_106_637
*1185 FILLER_0_106_643
*1186 FILLER_0_106_645
*1187 FILLER_0_106_65
*1188 FILLER_0_106_657
*1189 FILLER_0_106_669
*1190 FILLER_0_106_681
*1191 FILLER_0_106_693
*1192 FILLER_0_106_699
*1193 FILLER_0_106_701
*1194 FILLER_0_106_713
*1195 FILLER_0_106_725
*1196 FILLER_0_106_737
*1197 FILLER_0_106_749
*1198 FILLER_0_106_755
*1199 FILLER_0_106_757
*1200 FILLER_0_106_769
*1201 FILLER_0_106_77
*1202 FILLER_0_106_781
*1203 FILLER_0_106_793
*1204 FILLER_0_106_805
*1205 FILLER_0_106_811
*1206 FILLER_0_106_813
*1207 FILLER_0_106_825
*1208 FILLER_0_106_83
*1209 FILLER_0_106_837
*1210 FILLER_0_106_85
*1211 FILLER_0_106_858
*1212 FILLER_0_106_878
*1213 FILLER_0_106_905
*1214 FILLER_0_106_913
*1215 FILLER_0_106_922
*1216 FILLER_0_106_945
*1217 FILLER_0_106_957
*1218 FILLER_0_106_969
*1219 FILLER_0_106_97
*1220 FILLER_0_106_977
*1221 FILLER_0_106_981
*1222 FILLER_0_106_993
*1223 FILLER_0_107_1001
*1224 FILLER_0_107_1007
*1225 FILLER_0_107_1009
*1226 FILLER_0_107_1021
*1227 FILLER_0_107_1033
*1228 FILLER_0_107_1045
*1229 FILLER_0_107_105
*1230 FILLER_0_107_1053
*1231 FILLER_0_107_111
*1232 FILLER_0_107_113
*1233 FILLER_0_107_125
*1234 FILLER_0_107_137
*1235 FILLER_0_107_149
*1236 FILLER_0_107_15
*1237 FILLER_0_107_161
*1238 FILLER_0_107_167
*1239 FILLER_0_107_169
*1240 FILLER_0_107_181
*1241 FILLER_0_107_193
*1242 FILLER_0_107_205
*1243 FILLER_0_107_217
*1244 FILLER_0_107_223
*1245 FILLER_0_107_225
*1246 FILLER_0_107_237
*1247 FILLER_0_107_249
*1248 FILLER_0_107_261
*1249 FILLER_0_107_27
*1250 FILLER_0_107_273
*1251 FILLER_0_107_279
*1252 FILLER_0_107_281
*1253 FILLER_0_107_293
*1254 FILLER_0_107_3
*1255 FILLER_0_107_305
*1256 FILLER_0_107_317
*1257 FILLER_0_107_329
*1258 FILLER_0_107_335
*1259 FILLER_0_107_337
*1260 FILLER_0_107_349
*1261 FILLER_0_107_361
*1262 FILLER_0_107_373
*1263 FILLER_0_107_385
*1264 FILLER_0_107_39
*1265 FILLER_0_107_391
*1266 FILLER_0_107_393
*1267 FILLER_0_107_405
*1268 FILLER_0_107_417
*1269 FILLER_0_107_429
*1270 FILLER_0_107_441
*1271 FILLER_0_107_447
*1272 FILLER_0_107_449
*1273 FILLER_0_107_461
*1274 FILLER_0_107_473
*1275 FILLER_0_107_485
*1276 FILLER_0_107_497
*1277 FILLER_0_107_503
*1278 FILLER_0_107_505
*1279 FILLER_0_107_51
*1280 FILLER_0_107_517
*1281 FILLER_0_107_529
*1282 FILLER_0_107_541
*1283 FILLER_0_107_55
*1284 FILLER_0_107_553
*1285 FILLER_0_107_559
*1286 FILLER_0_107_561
*1287 FILLER_0_107_57
*1288 FILLER_0_107_573
*1289 FILLER_0_107_585
*1290 FILLER_0_107_597
*1291 FILLER_0_107_609
*1292 FILLER_0_107_615
*1293 FILLER_0_107_617
*1294 FILLER_0_107_629
*1295 FILLER_0_107_641
*1296 FILLER_0_107_653
*1297 FILLER_0_107_665
*1298 FILLER_0_107_671
*1299 FILLER_0_107_673
*1300 FILLER_0_107_685
*1301 FILLER_0_107_69
*1302 FILLER_0_107_697
*1303 FILLER_0_107_709
*1304 FILLER_0_107_721
*1305 FILLER_0_107_727
*1306 FILLER_0_107_729
*1307 FILLER_0_107_741
*1308 FILLER_0_107_753
*1309 FILLER_0_107_765
*1310 FILLER_0_107_777
*1311 FILLER_0_107_783
*1312 FILLER_0_107_785
*1313 FILLER_0_107_797
*1314 FILLER_0_107_809
*1315 FILLER_0_107_81
*1316 FILLER_0_107_821
*1317 FILLER_0_107_833
*1318 FILLER_0_107_839
*1319 FILLER_0_107_864
*1320 FILLER_0_107_871
*1321 FILLER_0_107_891
*1322 FILLER_0_107_895
*1323 FILLER_0_107_897
*1324 FILLER_0_107_909
*1325 FILLER_0_107_919
*1326 FILLER_0_107_923
*1327 FILLER_0_107_93
*1328 FILLER_0_107_937
*1329 FILLER_0_107_949
*1330 FILLER_0_107_953
*1331 FILLER_0_107_965
*1332 FILLER_0_107_977
*1333 FILLER_0_107_989
*1334 FILLER_0_108_1005
*1335 FILLER_0_108_1017
*1336 FILLER_0_108_1029
*1337 FILLER_0_108_1035
*1338 FILLER_0_108_1037
*1339 FILLER_0_108_1049
*1340 FILLER_0_108_1057
*1341 FILLER_0_108_109
*1342 FILLER_0_108_121
*1343 FILLER_0_108_133
*1344 FILLER_0_108_139
*1345 FILLER_0_108_141
*1346 FILLER_0_108_15
*1347 FILLER_0_108_153
*1348 FILLER_0_108_165
*1349 FILLER_0_108_177
*1350 FILLER_0_108_189
*1351 FILLER_0_108_195
*1352 FILLER_0_108_197
*1353 FILLER_0_108_209
*1354 FILLER_0_108_221
*1355 FILLER_0_108_233
*1356 FILLER_0_108_245
*1357 FILLER_0_108_251
*1358 FILLER_0_108_253
*1359 FILLER_0_108_265
*1360 FILLER_0_108_27
*1361 FILLER_0_108_277
*1362 FILLER_0_108_289
*1363 FILLER_0_108_29
*1364 FILLER_0_108_3
*1365 FILLER_0_108_301
*1366 FILLER_0_108_307
*1367 FILLER_0_108_309
*1368 FILLER_0_108_321
*1369 FILLER_0_108_333
*1370 FILLER_0_108_345
*1371 FILLER_0_108_357
*1372 FILLER_0_108_363
*1373 FILLER_0_108_365
*1374 FILLER_0_108_377
*1375 FILLER_0_108_389
*1376 FILLER_0_108_401
*1377 FILLER_0_108_41
*1378 FILLER_0_108_413
*1379 FILLER_0_108_419
*1380 FILLER_0_108_421
*1381 FILLER_0_108_433
*1382 FILLER_0_108_445
*1383 FILLER_0_108_457
*1384 FILLER_0_108_469
*1385 FILLER_0_108_475
*1386 FILLER_0_108_477
*1387 FILLER_0_108_489
*1388 FILLER_0_108_501
*1389 FILLER_0_108_513
*1390 FILLER_0_108_525
*1391 FILLER_0_108_53
*1392 FILLER_0_108_531
*1393 FILLER_0_108_533
*1394 FILLER_0_108_545
*1395 FILLER_0_108_557
*1396 FILLER_0_108_569
*1397 FILLER_0_108_581
*1398 FILLER_0_108_587
*1399 FILLER_0_108_589
*1400 FILLER_0_108_601
*1401 FILLER_0_108_613
*1402 FILLER_0_108_625
*1403 FILLER_0_108_637
*1404 FILLER_0_108_643
*1405 FILLER_0_108_645
*1406 FILLER_0_108_65
*1407 FILLER_0_108_657
*1408 FILLER_0_108_669
*1409 FILLER_0_108_681
*1410 FILLER_0_108_693
*1411 FILLER_0_108_699
*1412 FILLER_0_108_701
*1413 FILLER_0_108_713
*1414 FILLER_0_108_725
*1415 FILLER_0_108_737
*1416 FILLER_0_108_749
*1417 FILLER_0_108_755
*1418 FILLER_0_108_757
*1419 FILLER_0_108_769
*1420 FILLER_0_108_77
*1421 FILLER_0_108_781
*1422 FILLER_0_108_793
*1423 FILLER_0_108_805
*1424 FILLER_0_108_811
*1425 FILLER_0_108_813
*1426 FILLER_0_108_825
*1427 FILLER_0_108_83
*1428 FILLER_0_108_837
*1429 FILLER_0_108_849
*1430 FILLER_0_108_85
*1431 FILLER_0_108_861
*1432 FILLER_0_108_867
*1433 FILLER_0_108_869
*1434 FILLER_0_108_881
*1435 FILLER_0_108_893
*1436 FILLER_0_108_905
*1437 FILLER_0_108_917
*1438 FILLER_0_108_923
*1439 FILLER_0_108_925
*1440 FILLER_0_108_930
*1441 FILLER_0_108_942
*1442 FILLER_0_108_954
*1443 FILLER_0_108_966
*1444 FILLER_0_108_97
*1445 FILLER_0_108_978
*1446 FILLER_0_108_981
*1447 FILLER_0_108_993
*1448 FILLER_0_109_1001
*1449 FILLER_0_109_1007
*1450 FILLER_0_109_1009
*1451 FILLER_0_109_1021
*1452 FILLER_0_109_1033
*1453 FILLER_0_109_1045
*1454 FILLER_0_109_105
*1455 FILLER_0_109_1057
*1456 FILLER_0_109_111
*1457 FILLER_0_109_113
*1458 FILLER_0_109_125
*1459 FILLER_0_109_137
*1460 FILLER_0_109_149
*1461 FILLER_0_109_15
*1462 FILLER_0_109_161
*1463 FILLER_0_109_167
*1464 FILLER_0_109_169
*1465 FILLER_0_109_181
*1466 FILLER_0_109_193
*1467 FILLER_0_109_205
*1468 FILLER_0_109_217
*1469 FILLER_0_109_223
*1470 FILLER_0_109_225
*1471 FILLER_0_109_237
*1472 FILLER_0_109_249