*SPEF "ieee 1481-1999"
*DESIGN "vajra_caravel_soc"
*DATE "11:11:11 Fri 11 11, 1111"
*VENDOR "OpenRCX"
*PROGRAM "Parallel Extraction"
*VERSION "1.0"
*DESIGN_FLOW "NAME_SCOPE LOCAL" "PIN_CAP NONE"
*DIVIDER /
*DELIMITER :
*BUS_DELIMITER []
*T_UNIT 1 NS
*C_UNIT 1 PF
*R_UNIT 1 OHM
*L_UNIT 1 HENRY

*NAME_MAP
*1 io_in[0]
*2 io_in[10]
*3 io_in[11]
*4 io_in[12]
*5 io_in[13]
*6 io_in[14]
*7 io_in[15]
*8 io_in[16]
*9 io_in[17]
*10 io_in[18]
*11 io_in[19]
*12 io_in[1]
*13 io_in[20]
*14 io_in[21]
*15 io_in[22]
*16 io_in[23]
*17 io_in[24]
*18 io_in[25]
*19 io_in[26]
*20 io_in[27]
*21 io_in[28]
*22 io_in[29]
*23 io_in[2]
*24 io_in[30]
*25 io_in[31]
*26 io_in[32]
*27 io_in[33]
*28 io_in[34]
*29 io_in[35]
*30 io_in[36]
*31 io_in[37]
*32 io_in[3]
*33 io_in[4]
*34 io_in[5]
*35 io_in[6]
*36 io_in[7]
*37 io_in[8]
*38 io_in[9]
*39 net3
*40 net13
*41 net14
*42 net15
*43 net16
*44 net17
*45 net18
*46 net19
*47 net20
*48 net21
*49 net22
*50 net4
*51 net23
*52 net24
*53 net25
*54 net26
*55 net27
*56 net28
*57 net29
*58 net30
*59 net31
*60 net32
*61 net5
*62 net33
*63 net34
*64 net35
*65 net36
*66 net37
*67 net38
*68 net39
*69 net40
*70 net6
*71 net7
*72 net8
*73 net9
*74 net10
*75 net11
*76 net12
*77 io_out[0]
*78 net50
*79 net51
*80 net52
*81 net53
*82 net54
*83 net55
*84 net56
*85 net57
*86 net58
*87 net59
*88 net41
*89 net60
*90 net61
*91 net62
*92 net63
*93 net64
*94 net65
*95 net66
*96 net67
*97 net68
*98 net69
*99 net42
*100 net70
*101 net71
*102 net72
*103 net73
*104 net74
*105 net75
*106 net76
*107 net77
*108 net43
*109 net44
*110 net45
*111 net46
*112 net47
*113 net48
*114 net49
*121 wb_clk_i
*122 wb_rst_i
*123 _000_
*124 _001_
*125 _002_
*126 _003_
*127 _004_
*128 _005_
*129 _006_
*130 _007_
*131 _008_
*132 _009_
*133 _010_
*134 _011_
*135 _012_
*136 _013_
*137 _014_
*138 _015_
*139 _016_
*140 _017_
*141 _018_
*142 _019_
*143 _020_
*144 _021_
*145 _022_
*146 _023_
*147 _024_
*148 _025_
*149 _026_
*150 _027_
*151 _028_
*152 _029_
*153 _030_
*154 _031_
*155 _032_
*156 _033_
*157 _034_
*158 _035_
*159 _036_
*160 _037_
*161 _038_
*162 _039_
*163 _040_
*164 _041_
*165 _042_
*166 _043_
*167 _044_
*168 _045_
*169 _046_
*170 _047_
*171 _048_
*172 _049_
*173 _050_
*174 _051_
*175 _052_
*176 _053_
*177 _054_
*178 _055_
*179 _056_
*180 _057_
*181 _058_
*182 _059_
*183 _060_
*184 _061_
*185 _062_
*186 _063_
*187 _064_
*188 _065_
*189 _066_
*190 _067_
*191 _068_
*192 _069_
*193 _070_
*194 _071_
*195 _072_
*196 _073_
*197 _074_
*198 _075_
*199 _076_
*200 _077_
*201 _078_
*202 _079_
*203 _080_
*204 _081_
*205 _082_
*206 _083_
*207 _084_
*208 _085_
*209 _086_
*210 _087_
*211 _088_
*212 _089_
*213 _090_
*214 _091_
*215 _092_
*216 _093_
*217 _094_
*218 _095_
*219 _096_
*220 _097_
*221 _098_
*222 _099_
*223 _100_
*224 _101_
*225 _102_
*226 _103_
*227 _104_
*228 _105_
*229 _106_
*230 _107_
*231 _108_
*232 _109_
*233 _110_
*234 _111_
*235 _112_
*236 _113_
*237 _114_
*238 _115_
*239 _116_
*240 _117_
*241 _118_
*242 _119_
*243 _120_
*244 _121_
*245 _122_
*246 _123_
*247 _124_
*248 _125_
*249 _126_
*250 _127_
*251 _128_
*252 _129_
*253 _130_
*254 _131_
*255 _132_
*256 _133_
*257 _134_
*258 _135_
*259 _136_
*260 _137_
*261 _138_
*262 _139_
*263 _140_
*264 _141_
*265 _142_
*266 _143_
*267 _144_
*268 _145_
*269 _146_
*270 _147_
*271 _148_
*272 _149_
*273 _150_
*274 _151_
*275 _152_
*276 _153_
*277 _154_
*278 _155_
*279 _156_
*280 _157_
*281 _158_
*282 _159_
*283 _160_
*284 _161_
*285 _162_
*286 _163_
*287 _164_
*288 _165_
*289 _166_
*290 _167_
*291 _168_
*292 _169_
*293 _170_
*294 _171_
*295 _172_
*296 _173_
*297 _174_
*298 _175_
*299 _176_
*300 _177_
*301 _178_
*302 _179_
*303 _180_
*304 _181_
*305 _182_
*306 _183_
*307 _184_
*308 _185_
*309 _186_
*310 _187_
*311 _188_
*312 _189_
*313 _190_
*314 _191_
*315 _192_
*316 _193_
*317 _194_
*318 _195_
*319 _196_
*320 _197_
*321 _198_
*322 _199_
*323 _200_
*324 _201_
*325 _202_
*326 _203_
*327 _204_
*328 _205_
*329 _206_
*330 _207_
*331 _208_
*332 _209_
*333 _210_
*334 _211_
*335 _212_
*336 _213_
*337 _214_
*338 _215_
*339 _216_
*340 _217_
*341 _218_
*342 _219_
*343 _220_
*344 _221_
*345 _222_
*346 _223_
*347 _224_
*348 _225_
*349 _226_
*350 _227_
*351 _228_
*352 _229_
*353 _230_
*354 _231_
*355 _232_
*356 _233_
*357 _234_
*358 _235_
*359 _236_
*360 _237_
*361 _238_
*362 _239_
*363 _240_
*364 _241_
*365 _242_
*366 _243_
*367 _244_
*368 _245_
*369 _246_
*370 _247_
*371 _248_
*372 _249_
*373 _250_
*374 _251_
*375 _252_
*376 _253_
*377 _254_
*378 _255_
*379 _256_
*380 clknet_0_wb_clk_i
*381 clknet_2_0__leaf_wb_clk_i
*382 clknet_2_1__leaf_wb_clk_i
*383 clknet_2_2__leaf_wb_clk_i
*384 clknet_2_3__leaf_wb_clk_i
*385 net1
*386 net100
*387 net101
*388 net102
*389 net103
*390 net104
*391 net105
*392 net106
*393 net107
*394 net108
*395 net109
*396 net2
*397 net78
*398 net79
*399 net80
*400 net81
*401 net82
*402 net83
*403 net84
*404 net85
*405 net86
*406 net87
*407 net88
*408 net89
*409 net90
*410 net91
*411 net92
*412 net93
*413 net94
*414 net95
*415 net96
*416 net97
*417 net98
*418 net99
*419 u_cpu\.PC_F\[10\]
*420 u_cpu\.PC_F\[11\]
*421 u_cpu\.PC_F\[12\]
*422 u_cpu\.PC_F\[13\]
*423 u_cpu\.PC_F\[14\]
*424 u_cpu\.PC_F\[15\]
*425 u_cpu\.PC_F\[16\]
*426 u_cpu\.PC_F\[17\]
*427 u_cpu\.PC_F\[18\]
*428 u_cpu\.PC_F\[19\]
*429 u_cpu\.PC_F\[20\]
*430 u_cpu\.PC_F\[21\]
*431 u_cpu\.PC_F\[22\]
*432 u_cpu\.PC_F\[23\]
*433 u_cpu\.PC_F\[24\]
*434 u_cpu\.PC_F\[25\]
*435 u_cpu\.PC_F\[26\]
*436 u_cpu\.PC_F\[27\]
*437 u_cpu\.PC_F\[28\]
*438 u_cpu\.PC_F\[29\]
*439 u_cpu\.PC_F\[2\]
*440 u_cpu\.PC_F\[30\]
*441 u_cpu\.PC_F\[31\]
*442 u_cpu\.PC_F\[3\]
*443 u_cpu\.PC_F\[4\]
*444 u_cpu\.PC_F\[5\]
*445 u_cpu\.PC_F\[6\]
*446 u_cpu\.PC_F\[7\]
*447 u_cpu\.PC_F\[8\]
*448 u_cpu\.PC_F\[9\]
*449 u_cpu\.counter\[0\]
*450 u_cpu\.counter\[10\]
*451 u_cpu\.counter\[11\]
*452 u_cpu\.counter\[12\]
*453 u_cpu\.counter\[13\]
*454 u_cpu\.counter\[14\]
*455 u_cpu\.counter\[15\]
*456 u_cpu\.counter\[16\]
*457 u_cpu\.counter\[17\]
*458 u_cpu\.counter\[18\]
*459 u_cpu\.counter\[19\]
*460 u_cpu\.counter\[1\]
*461 u_cpu\.counter\[20\]
*462 u_cpu\.counter\[21\]
*463 u_cpu\.counter\[22\]
*464 u_cpu\.counter\[23\]
*465 u_cpu\.counter\[24\]
*466 u_cpu\.counter\[25\]
*467 u_cpu\.counter\[2\]
*468 u_cpu\.counter\[3\]
*469 u_cpu\.counter\[4\]
*470 u_cpu\.counter\[5\]
*471 u_cpu\.counter\[6\]
*472 u_cpu\.counter\[7\]
*473 u_cpu\.counter\[8\]
*474 u_cpu\.counter\[9\]
*475 ANTENNA_1
*476 ANTENNA_2
*477 FILLER_0_0_1005
*478 FILLER_0_0_1009
*479 FILLER_0_0_1021
*480 FILLER_0_0_1033
*481 FILLER_0_0_1037
*482 FILLER_0_0_1042
*483 FILLER_0_0_1054
*484 FILLER_0_0_1062
*485 FILLER_0_0_1065
*486 FILLER_0_0_1077
*487 FILLER_0_0_1089
*488 FILLER_0_0_109
*489 FILLER_0_0_1093
*490 FILLER_0_0_1101
*491 FILLER_0_0_1105
*492 FILLER_0_0_1117
*493 FILLER_0_0_1121
*494 FILLER_0_0_113
*495 FILLER_0_0_1133
*496 FILLER_0_0_1145
*497 FILLER_0_0_1149
*498 FILLER_0_0_1161
*499 FILLER_0_0_1173
*500 FILLER_0_0_1177
*501 FILLER_0_0_118
*502 FILLER_0_0_1189
*503 FILLER_0_0_1201
*504 FILLER_0_0_1205
*505 FILLER_0_0_1217
*506 FILLER_0_0_1229
*507 FILLER_0_0_1233
*508 FILLER_0_0_1238
*509 FILLER_0_0_1250
*510 FILLER_0_0_1258
*511 FILLER_0_0_1261
*512 FILLER_0_0_1273
*513 FILLER_0_0_1285
*514 FILLER_0_0_1289
*515 FILLER_0_0_1297
*516 FILLER_0_0_130
*517 FILLER_0_0_1301
*518 FILLER_0_0_1313
*519 FILLER_0_0_1317
*520 FILLER_0_0_1329
*521 FILLER_0_0_1341
*522 FILLER_0_0_1345
*523 FILLER_0_0_1357
*524 FILLER_0_0_1365
*525 FILLER_0_0_1371
*526 FILLER_0_0_1373
*527 FILLER_0_0_138
*528 FILLER_0_0_1385
*529 FILLER_0_0_1397
*530 FILLER_0_0_1401
*531 FILLER_0_0_141
*532 FILLER_0_0_1413
*533 FILLER_0_0_1425
*534 FILLER_0_0_1429
*535 FILLER_0_0_1434
*536 FILLER_0_0_1446
*537 FILLER_0_0_1454
*538 FILLER_0_0_1457
*539 FILLER_0_0_1469
*540 FILLER_0_0_1481
*541 FILLER_0_0_1485
*542 FILLER_0_0_1497
*543 FILLER_0_0_1504
*544 FILLER_0_0_1513
*545 FILLER_0_0_1525
*546 FILLER_0_0_153
*547 FILLER_0_0_1537
*548 FILLER_0_0_1541
*549 FILLER_0_0_1553
*550 FILLER_0_0_1561
*551 FILLER_0_0_1567
*552 FILLER_0_0_1569
*553 FILLER_0_0_1581
*554 FILLER_0_0_1593
*555 FILLER_0_0_1597
*556 FILLER_0_0_1609
*557 FILLER_0_0_1621
*558 FILLER_0_0_1625
*559 FILLER_0_0_1630
*560 FILLER_0_0_1642
*561 FILLER_0_0_165
*562 FILLER_0_0_1650
*563 FILLER_0_0_1653
*564 FILLER_0_0_1665
*565 FILLER_0_0_1677
*566 FILLER_0_0_1681
*567 FILLER_0_0_169
*568 FILLER_0_0_1693
*569 FILLER_0_0_1700
*570 FILLER_0_0_1709
*571 FILLER_0_0_1721
*572 FILLER_0_0_1733
*573 FILLER_0_0_1737
*574 FILLER_0_0_1749
*575 FILLER_0_0_1757
*576 FILLER_0_0_1763
*577 FILLER_0_0_1765
*578 FILLER_0_0_1777
*579 FILLER_0_0_1789
*580 FILLER_0_0_1793
*581 FILLER_0_0_18
*582 FILLER_0_0_1805
*583 FILLER_0_0_181
*584 FILLER_0_0_1817
*585 FILLER_0_0_1821
*586 FILLER_0_0_1833
*587 FILLER_0_0_1845
*588 FILLER_0_0_1849
*589 FILLER_0_0_1861
*590 FILLER_0_0_1873
*591 FILLER_0_0_1877
*592 FILLER_0_0_188
*593 FILLER_0_0_1889
*594 FILLER_0_0_1896
*595 FILLER_0_0_1905
*596 FILLER_0_0_1917
*597 FILLER_0_0_197
*598 FILLER_0_0_209
*599 FILLER_0_0_221
*600 FILLER_0_0_225
*601 FILLER_0_0_237
*602 FILLER_0_0_245
*603 FILLER_0_0_251
*604 FILLER_0_0_253
*605 FILLER_0_0_26
*606 FILLER_0_0_265
*607 FILLER_0_0_277
*608 FILLER_0_0_281
*609 FILLER_0_0_29
*610 FILLER_0_0_293
*611 FILLER_0_0_305
*612 FILLER_0_0_309
*613 FILLER_0_0_314
*614 FILLER_0_0_326
*615 FILLER_0_0_334
*616 FILLER_0_0_337
*617 FILLER_0_0_349
*618 FILLER_0_0_361
*619 FILLER_0_0_365
*620 FILLER_0_0_377
*621 FILLER_0_0_384
*622 FILLER_0_0_393
*623 FILLER_0_0_405
*624 FILLER_0_0_41
*625 FILLER_0_0_417
*626 FILLER_0_0_421
*627 FILLER_0_0_433
*628 FILLER_0_0_445
*629 FILLER_0_0_449
*630 FILLER_0_0_461
*631 FILLER_0_0_473
*632 FILLER_0_0_477
*633 FILLER_0_0_489
*634 FILLER_0_0_49
*635 FILLER_0_0_501
*636 FILLER_0_0_505
*637 FILLER_0_0_517
*638 FILLER_0_0_529
*639 FILLER_0_0_533
*640 FILLER_0_0_545
*641 FILLER_0_0_55
*642 FILLER_0_0_557
*643 FILLER_0_0_561
*644 FILLER_0_0_57
*645 FILLER_0_0_573
*646 FILLER_0_0_580
*647 FILLER_0_0_589
*648 FILLER_0_0_6
*649 FILLER_0_0_601
*650 FILLER_0_0_613
*651 FILLER_0_0_617
*652 FILLER_0_0_629
*653 FILLER_0_0_637
*654 FILLER_0_0_643
*655 FILLER_0_0_645
*656 FILLER_0_0_657
*657 FILLER_0_0_669
*658 FILLER_0_0_673
*659 FILLER_0_0_685
*660 FILLER_0_0_69
*661 FILLER_0_0_697
*662 FILLER_0_0_701
*663 FILLER_0_0_713
*664 FILLER_0_0_725
*665 FILLER_0_0_729
*666 FILLER_0_0_741
*667 FILLER_0_0_753
*668 FILLER_0_0_757
*669 FILLER_0_0_769
*670 FILLER_0_0_776
*671 FILLER_0_0_785
*672 FILLER_0_0_797
*673 FILLER_0_0_809
*674 FILLER_0_0_81
*675 FILLER_0_0_813
*676 FILLER_0_0_825
*677 FILLER_0_0_837
*678 FILLER_0_0_841
*679 FILLER_0_0_846
*680 FILLER_0_0_85
*681 FILLER_0_0_858
*682 FILLER_0_0_866
*683 FILLER_0_0_869
*684 FILLER_0_0_881
*685 FILLER_0_0_893
*686 FILLER_0_0_897
*687 FILLER_0_0_905
*688 FILLER_0_0_909
*689 FILLER_0_0_921
*690 FILLER_0_0_925
*691 FILLER_0_0_937
*692 FILLER_0_0_949
*693 FILLER_0_0_953
*694 FILLER_0_0_965
*695 FILLER_0_0_97
*696 FILLER_0_0_972
*697 FILLER_0_0_981
*698 FILLER_0_0_993
*699 FILLER_0_100_1005
*700 FILLER_0_100_1017
*701 FILLER_0_100_1029
*702 FILLER_0_100_1035
*703 FILLER_0_100_1037
*704 FILLER_0_100_1049
*705 FILLER_0_100_1061
*706 FILLER_0_100_1073
*707 FILLER_0_100_1085
*708 FILLER_0_100_109
*709 FILLER_0_100_1091
*710 FILLER_0_100_1093
*711 FILLER_0_100_1105
*712 FILLER_0_100_1117
*713 FILLER_0_100_1129
*714 FILLER_0_100_1141
*715 FILLER_0_100_1147
*716 FILLER_0_100_1149
*717 FILLER_0_100_1161
*718 FILLER_0_100_1173
*719 FILLER_0_100_1185
*720 FILLER_0_100_1197
*721 FILLER_0_100_1203
*722 FILLER_0_100_1205
*723 FILLER_0_100_121
*724 FILLER_0_100_1217
*725 FILLER_0_100_1229
*726 FILLER_0_100_1241
*727 FILLER_0_100_1253
*728 FILLER_0_100_1259
*729 FILLER_0_100_1261
*730 FILLER_0_100_1273
*731 FILLER_0_100_1285
*732 FILLER_0_100_1297
*733 FILLER_0_100_1309
*734 FILLER_0_100_1315
*735 FILLER_0_100_1317
*736 FILLER_0_100_1329
*737 FILLER_0_100_133
*738 FILLER_0_100_1341
*739 FILLER_0_100_1353
*740 FILLER_0_100_1365
*741 FILLER_0_100_1371
*742 FILLER_0_100_1373
*743 FILLER_0_100_1385
*744 FILLER_0_100_139
*745 FILLER_0_100_1397
*746 FILLER_0_100_1409
*747 FILLER_0_100_141
*748 FILLER_0_100_1421
*749 FILLER_0_100_1427
*750 FILLER_0_100_1429
*751 FILLER_0_100_1441
*752 FILLER_0_100_1453
*753 FILLER_0_100_1465
*754 FILLER_0_100_1477
*755 FILLER_0_100_1483
*756 FILLER_0_100_1485
*757 FILLER_0_100_1497
*758 FILLER_0_100_15
*759 FILLER_0_100_1509
*760 FILLER_0_100_1521
*761 FILLER_0_100_153
*762 FILLER_0_100_1533
*763 FILLER_0_100_1539
*764 FILLER_0_100_1541
*765 FILLER_0_100_1553
*766 FILLER_0_100_1565
*767 FILLER_0_100_1577
*768 FILLER_0_100_1589
*769 FILLER_0_100_1595
*770 FILLER_0_100_1597
*771 FILLER_0_100_1609
*772 FILLER_0_100_1621
*773 FILLER_0_100_1633
*774 FILLER_0_100_1645
*775 FILLER_0_100_165
*776 FILLER_0_100_1651
*777 FILLER_0_100_1653
*778 FILLER_0_100_1665
*779 FILLER_0_100_1677
*780 FILLER_0_100_1689
*781 FILLER_0_100_1701
*782 FILLER_0_100_1707
*783 FILLER_0_100_1709
*784 FILLER_0_100_1721
*785 FILLER_0_100_1733
*786 FILLER_0_100_1745
*787 FILLER_0_100_1757
*788 FILLER_0_100_1763
*789 FILLER_0_100_1765
*790 FILLER_0_100_177
*791 FILLER_0_100_1777
*792 FILLER_0_100_1789
*793 FILLER_0_100_1801
*794 FILLER_0_100_1813
*795 FILLER_0_100_1819
*796 FILLER_0_100_1821
*797 FILLER_0_100_1833
*798 FILLER_0_100_1845
*799 FILLER_0_100_1857
*800 FILLER_0_100_1869
*801 FILLER_0_100_1875
*802 FILLER_0_100_1877
*803 FILLER_0_100_1889
*804 FILLER_0_100_189
*805 FILLER_0_100_1901
*806 FILLER_0_100_1913
*807 FILLER_0_100_1925
*808 FILLER_0_100_195
*809 FILLER_0_100_197
*810 FILLER_0_100_209
*811 FILLER_0_100_221
*812 FILLER_0_100_233
*813 FILLER_0_100_245
*814 FILLER_0_100_251
*815 FILLER_0_100_253
*816 FILLER_0_100_265
*817 FILLER_0_100_27
*818 FILLER_0_100_277
*819 FILLER_0_100_289
*820 FILLER_0_100_29
*821 FILLER_0_100_3
*822 FILLER_0_100_301
*823 FILLER_0_100_307
*824 FILLER_0_100_309
*825 FILLER_0_100_321
*826 FILLER_0_100_333
*827 FILLER_0_100_345
*828 FILLER_0_100_357
*829 FILLER_0_100_363
*830 FILLER_0_100_365
*831 FILLER_0_100_377
*832 FILLER_0_100_389
*833 FILLER_0_100_401
*834 FILLER_0_100_41
*835 FILLER_0_100_413
*836 FILLER_0_100_419
*837 FILLER_0_100_421
*838 FILLER_0_100_433
*839 FILLER_0_100_445
*840 FILLER_0_100_457
*841 FILLER_0_100_469
*842 FILLER_0_100_475
*843 FILLER_0_100_477
*844 FILLER_0_100_489
*845 FILLER_0_100_501
*846 FILLER_0_100_513
*847 FILLER_0_100_525
*848 FILLER_0_100_53
*849 FILLER_0_100_531
*850 FILLER_0_100_533
*851 FILLER_0_100_545
*852 FILLER_0_100_557
*853 FILLER_0_100_569
*854 FILLER_0_100_581
*855 FILLER_0_100_587
*856 FILLER_0_100_589
*857 FILLER_0_100_601
*858 FILLER_0_100_613
*859 FILLER_0_100_625
*860 FILLER_0_100_637
*861 FILLER_0_100_643
*862 FILLER_0_100_645
*863 FILLER_0_100_65
*864 FILLER_0_100_657
*865 FILLER_0_100_669
*866 FILLER_0_100_681
*867 FILLER_0_100_693
*868 FILLER_0_100_699
*869 FILLER_0_100_701
*870 FILLER_0_100_713
*871 FILLER_0_100_725
*872 FILLER_0_100_737
*873 FILLER_0_100_749
*874 FILLER_0_100_755
*875 FILLER_0_100_757
*876 FILLER_0_100_769
*877 FILLER_0_100_77
*878 FILLER_0_100_781
*879 FILLER_0_100_793
*880 FILLER_0_100_805
*881 FILLER_0_100_811
*882 FILLER_0_100_813
*883 FILLER_0_100_825
*884 FILLER_0_100_83
*885 FILLER_0_100_837
*886 FILLER_0_100_849
*887 FILLER_0_100_85
*888 FILLER_0_100_861
*889 FILLER_0_100_867
*890 FILLER_0_100_869
*891 FILLER_0_100_881
*892 FILLER_0_100_893
*893 FILLER_0_100_905
*894 FILLER_0_100_917
*895 FILLER_0_100_923
*896 FILLER_0_100_925
*897 FILLER_0_100_937
*898 FILLER_0_100_949
*899 FILLER_0_100_961
*900 FILLER_0_100_97
*901 FILLER_0_100_973
*902 FILLER_0_100_979
*903 FILLER_0_100_981
*904 FILLER_0_100_993
*905 FILLER_0_101_1001
*906 FILLER_0_101_1007
*907 FILLER_0_101_1009
*908 FILLER_0_101_1021
*909 FILLER_0_101_1033
*910 FILLER_0_101_1045
*911 FILLER_0_101_105
*912 FILLER_0_101_1057
*913 FILLER_0_101_1063
*914 FILLER_0_101_1065
*915 FILLER_0_101_1077
*916 FILLER_0_101_1089
*917 FILLER_0_101_1101
*918 FILLER_0_101_111
*919 FILLER_0_101_1113
*920 FILLER_0_101_1119
*921 FILLER_0_101_1121
*922 FILLER_0_101_113
*923 FILLER_0_101_1133
*924 FILLER_0_101_1145
*925 FILLER_0_101_1157
*926 FILLER_0_101_1169
*927 FILLER_0_101_1175
*928 FILLER_0_101_1177
*929 FILLER_0_101_1189
*930 FILLER_0_101_1201
*931 FILLER_0_101_1213
*932 FILLER_0_101_1225
*933 FILLER_0_101_1231
*934 FILLER_0_101_1233
*935 FILLER_0_101_1245
*936 FILLER_0_101_125
*937 FILLER_0_101_1257
*938 FILLER_0_101_1269
*939 FILLER_0_101_1281
*940 FILLER_0_101_1287
*941 FILLER_0_101_1289
*942 FILLER_0_101_1301
*943 FILLER_0_101_1313
*944 FILLER_0_101_1325
*945 FILLER_0_101_1337
*946 FILLER_0_101_1343
*947 FILLER_0_101_1345
*948 FILLER_0_101_1357
*949 FILLER_0_101_1369
*950 FILLER_0_101_137
*951 FILLER_0_101_1381
*952 FILLER_0_101_1393
*953 FILLER_0_101_1399
*954 FILLER_0_101_1401
*955 FILLER_0_101_1413
*956 FILLER_0_101_1425
*957 FILLER_0_101_1437
*958 FILLER_0_101_1449
*959 FILLER_0_101_1455
*960 FILLER_0_101_1457
*961 FILLER_0_101_1469
*962 FILLER_0_101_1481
*963 FILLER_0_101_149
*964 FILLER_0_101_1493
*965 FILLER_0_101_1505
*966 FILLER_0_101_1511
*967 FILLER_0_101_1513
*968 FILLER_0_101_1525
*969 FILLER_0_101_1537
*970 FILLER_0_101_1549
*971 FILLER_0_101_1561
*972 FILLER_0_101_1567
*973 FILLER_0_101_1569
*974 FILLER_0_101_1581
*975 FILLER_0_101_1593
*976 FILLER_0_101_1605
*977 FILLER_0_101_161
*978 FILLER_0_101_1617
*979 FILLER_0_101_1623
*980 FILLER_0_101_1625
*981 FILLER_0_101_1637
*982 FILLER_0_101_1649
*983 FILLER_0_101_1661
*984 FILLER_0_101_167
*985 FILLER_0_101_1673
*986 FILLER_0_101_1679
*987 FILLER_0_101_1681
*988 FILLER_0_101_169
*989 FILLER_0_101_1693
*990 FILLER_0_101_1705
*991 FILLER_0_101_1717
*992 FILLER_0_101_1729
*993 FILLER_0_101_1735
*994 FILLER_0_101_1737
*995 FILLER_0_101_1749
*996 FILLER_0_101_1761
*997 FILLER_0_101_1773
*998 FILLER_0_101_1785
*999 FILLER_0_101_1791
*1000 FILLER_0_101_1793
*1001 FILLER_0_101_18
*1002 FILLER_0_101_1805
*1003 FILLER_0_101_181
*1004 FILLER_0_101_1817
*1005 FILLER_0_101_1829
*1006 FILLER_0_101_1841
*1007 FILLER_0_101_1847
*1008 FILLER_0_101_1849
*1009 FILLER_0_101_1861
*1010 FILLER_0_101_1873
*1011 FILLER_0_101_1885
*1012 FILLER_0_101_1897
*1013 FILLER_0_101_1903
*1014 FILLER_0_101_1905
*1015 FILLER_0_101_1917
*1016 FILLER_0_101_193
*1017 FILLER_0_101_205
*1018 FILLER_0_101_217
*1019 FILLER_0_101_223
*1020 FILLER_0_101_225
*1021 FILLER_0_101_237
*1022 FILLER_0_101_249
*1023 FILLER_0_101_261
*1024 FILLER_0_101_273
*1025 FILLER_0_101_279
*1026 FILLER_0_101_281
*1027 FILLER_0_101_293
*1028 FILLER_0_101_30
*1029 FILLER_0_101_305
*1030 FILLER_0_101_317
*1031 FILLER_0_101_329
*1032 FILLER_0_101_335
*1033 FILLER_0_101_337
*1034 FILLER_0_101_349
*1035 FILLER_0_101_361
*1036 FILLER_0_101_373
*1037 FILLER_0_101_385
*1038 FILLER_0_101_391
*1039 FILLER_0_101_393
*1040 FILLER_0_101_405
*1041 FILLER_0_101_417
*1042 FILLER_0_101_42
*1043 FILLER_0_101_429
*1044 FILLER_0_101_441
*1045 FILLER_0_101_447
*1046 FILLER_0_101_449
*1047 FILLER_0_101_461
*1048 FILLER_0_101_473
*1049 FILLER_0_101_485
*1050 FILLER_0_101_497
*1051 FILLER_0_101_503
*1052 FILLER_0_101_505
*1053 FILLER_0_101_517
*1054 FILLER_0_101_529
*1055 FILLER_0_101_54
*1056 FILLER_0_101_541
*1057 FILLER_0_101_553
*1058 FILLER_0_101_559
*1059 FILLER_0_101_561
*1060 FILLER_0_101_57
*1061 FILLER_0_101_573
*1062 FILLER_0_101_585
*1063 FILLER_0_101_597
*1064 FILLER_0_101_6
*1065 FILLER_0_101_609
*1066 FILLER_0_101_615
*1067 FILLER_0_101_617
*1068 FILLER_0_101_629
*1069 FILLER_0_101_641
*1070 FILLER_0_101_653
*1071 FILLER_0_101_665
*1072 FILLER_0_101_671
*1073 FILLER_0_101_673
*1074 FILLER_0_101_685
*1075 FILLER_0_101_69
*1076 FILLER_0_101_697
*1077 FILLER_0_101_709
*1078 FILLER_0_101_721
*1079 FILLER_0_101_727
*1080 FILLER_0_101_729
*1081 FILLER_0_101_741
*1082 FILLER_0_101_753
*1083 FILLER_0_101_765
*1084 FILLER_0_101_777
*1085 FILLER_0_101_783
*1086 FILLER_0_101_785
*1087 FILLER_0_101_797
*1088 FILLER_0_101_809
*1089 FILLER_0_101_81
*1090 FILLER_0_101_821
*1091 FILLER_0_101_833
*1092 FILLER_0_101_839
*1093 FILLER_0_101_841
*1094 FILLER_0_101_853
*1095 FILLER_0_101_865
*1096 FILLER_0_101_877
*1097 FILLER_0_101_889
*1098 FILLER_0_101_895
*1099 FILLER_0_101_897
*1100 FILLER_0_101_909
*1101 FILLER_0_101_921
*1102 FILLER_0_101_93
*1103 FILLER_0_101_933
*1104 FILLER_0_101_945
*1105 FILLER_0_101_951
*1106 FILLER_0_101_953
*1107 FILLER_0_101_965
*1108 FILLER_0_101_977
*1109 FILLER_0_101_989
*1110 FILLER_0_102_1005
*1111 FILLER_0_102_1017
*1112 FILLER_0_102_1029
*1113 FILLER_0_102_1035
*1114 FILLER_0_102_1037
*1115 FILLER_0_102_1049
*1116 FILLER_0_102_1061
*1117 FILLER_0_102_1073
*1118 FILLER_0_102_1085
*1119 FILLER_0_102_109
*1120 FILLER_0_102_1091
*1121 FILLER_0_102_1093
*1122 FILLER_0_102_1105
*1123 FILLER_0_102_1117
*1124 FILLER_0_102_1129
*1125 FILLER_0_102_1141
*1126 FILLER_0_102_1147
*1127 FILLER_0_102_1149
*1128 FILLER_0_102_1161
*1129 FILLER_0_102_1173
*1130 FILLER_0_102_1185
*1131 FILLER_0_102_1197
*1132 FILLER_0_102_1203
*1133 FILLER_0_102_1205
*1134 FILLER_0_102_121
*1135 FILLER_0_102_1217
*1136 FILLER_0_102_1229
*1137 FILLER_0_102_1241
*1138 FILLER_0_102_1253
*1139 FILLER_0_102_1259
*1140 FILLER_0_102_1261
*1141 FILLER_0_102_1273
*1142 FILLER_0_102_1285
*1143 FILLER_0_102_1297
*1144 FILLER_0_102_1309
*1145 FILLER_0_102_1315
*1146 FILLER_0_102_1317
*1147 FILLER_0_102_1329
*1148 FILLER_0_102_133
*1149 FILLER_0_102_1341
*1150 FILLER_0_102_1353
*1151 FILLER_0_102_1365
*1152 FILLER_0_102_1371
*1153 FILLER_0_102_1373
*1154 FILLER_0_102_1385
*1155 FILLER_0_102_139
*1156 FILLER_0_102_1397
*1157 FILLER_0_102_1409
*1158 FILLER_0_102_141
*1159 FILLER_0_102_1421
*1160 FILLER_0_102_1427
*1161 FILLER_0_102_1429
*1162 FILLER_0_102_1441
*1163 FILLER_0_102_1453
*1164 FILLER_0_102_1465
*1165 FILLER_0_102_1477
*1166 FILLER_0_102_1483
*1167 FILLER_0_102_1485
*1168 FILLER_0_102_1497
*1169 FILLER_0_102_15
*1170 FILLER_0_102_1509
*1171 FILLER_0_102_1521
*1172 FILLER_0_102_153
*1173 FILLER_0_102_1533
*1174 FILLER_0_102_1539
*1175 FILLER_0_102_1541
*1176 FILLER_0_102_1553
*1177 FILLER_0_102_1565
*1178 FILLER_0_102_1577
*1179 FILLER_0_102_1589
*1180 FILLER_0_102_1595
*1181 FILLER_0_102_1597
*1182 FILLER_0_102_1609
*1183 FILLER_0_102_1621
*1184 FILLER_0_102_1633
*1185 FILLER_0_102_1645
*1186 FILLER_0_102_165
*1187 FILLER_0_102_1651
*1188 FILLER_0_102_1653
*1189 FILLER_0_102_1665
*1190 FILLER_0_102_1677
*1191 FILLER_0_102_1689
*1192 FILLER_0_102_1701
*1193 FILLER_0_102_1707
*1194 FILLER_0_102_1709
*1195 FILLER_0_102_1721
*1196 FILLER_0_102_1733
*1197 FILLER_0_102_1745
*1198 FILLER_0_102_1757
*1199 FILLER_0_102_1763
*1200 FILLER_0_102_1765
*1201 FILLER_0_102_177
*1202 FILLER_0_102_1777
*1203 FILLER_0_102_1789
*1204 FILLER_0_102_1801
*1205 FILLER_0_102_1813
*1206 FILLER_0_102_1819
*1207 FILLER_0_102_1821
*1208 FILLER_0_102_1833
*1209 FILLER_0_102_1845
*1210 FILLER_0_102_1857
*1211 FILLER_0_102_1869
*1212 FILLER_0_102_1875
*1213 FILLER_0_102_1877
*1214 FILLER_0_102_1889
*1215 FILLER_0_102_189
*1216 FILLER_0_102_1901
*1217 FILLER_0_102_1913
*1218 FILLER_0_102_1925
*1219 FILLER_0_102_195
*1220 FILLER_0_102_197
*1221 FILLER_0_102_209
*1222 FILLER_0_102_221
*1223 FILLER_0_102_233
*1224 FILLER_0_102_245
*1225 FILLER_0_102_251
*1226 FILLER_0_102_253
*1227 FILLER_0_102_265
*1228 FILLER_0_102_27
*1229 FILLER_0_102_277
*1230 FILLER_0_102_289
*1231 FILLER_0_102_29
*1232 FILLER_0_102_3
*1233 FILLER_0_102_301
*1234 FILLER_0_102_307
*1235 FILLER_0_102_309
*1236 FILLER_0_102_321
*1237 FILLER_0_102_333
*1238 FILLER_0_102_345
*1239 FILLER_0_102_357
*1240 FILLER_0_102_363
*1241 FILLER_0_102_365
*1242 FILLER_0_102_377
*1243 FILLER_0_102_389
*1244 FILLER_0_102_401
*1245 FILLER_0_102_41
*1246 FILLER_0_102_413
*1247 FILLER_0_102_419
*1248 FILLER_0_102_421
*1249 FILLER_0_102_433
*1250 FILLER_0_102_445
*1251 FILLER_0_102_457
*1252 FILLER_0_102_469
*1253 FILLER_0_102_475
*1254 FILLER_0_102_477
*1255 FILLER_0_102_489
*1256 FILLER_0_102_501
*1257 FILLER_0_102_513
*1258 FILLER_0_102_525
*1259 FILLER_0_102_53
*1260 FILLER_0_102_531
*1261 FILLER_0_102_533
*1262 FILLER_0_102_545
*1263 FILLER_0_102_557
*1264 FILLER_0_102_569
*1265 FILLER_0_102_581
*1266 FILLER_0_102_587
*1267 FILLER_0_102_589
*1268 FILLER_0_102_601
*1269 FILLER_0_102_613
*1270 FILLER_0_102_625
*1271 FILLER_0_102_637
*1272 FILLER_0_102_643
*1273 FILLER_0_102_645
*1274 FILLER_0_102_65
*1275 FILLER_0_102_657
*1276 FILLER_0_102_669
*1277 FILLER_0_102_681
*1278 FILLER_0_102_693
*1279 FILLER_0_102_699
*1280 FILLER_0_102_701
*1281 FILLER_0_102_713
*1282 FILLER_0_102_725
*1283 FILLER_0_102_737
*1284 FILLER_0_102_749
*1285 FILLER_0_102_755
*1286 FILLER_0_102_757
*1287 FILLER_0_102_769
*1288 FILLER_0_102_77
*1289 FILLER_0_102_781
*1290 FILLER_0_102_793
*1291 FILLER_0_102_805
*1292 FILLER_0_102_811
*1293 FILLER_0_102_813
*1294 FILLER_0_102_825
*1295 FILLER_0_102_83
*1296 FILLER_0_102_837
*1297 FILLER_0_102_849
*1298 FILLER_0_102_85
*1299 FILLER_0_102_861
*1300 FILLER_0_102_867
*1301 FILLER_0_102_869
*1302 FILLER_0_102_881
*1303 FILLER_0_102_893
*1304 FILLER_0_102_905
*1305 FILLER_0_102_917
*1306 FILLER_0_102_923
*1307 FILLER_0_102_925
*1308 FILLER_0_102_937
*1309 FILLER_0_102_949
*1310 FILLER_0_102_961
*1311 FILLER_0_102_97
*1312 FILLER_0_102_973
*1313 FILLER_0_102_979
*1314 FILLER_0_102_981
*1315 FILLER_0_102_993
*1316 FILLER_0_103_1001
*1317 FILLER_0_103_1007
*1318 FILLER_0_103_1009
*1319 FILLER_0_103_1021
*1320 FILLER_0_103_1033
*1321 FILLER_0_103_1045
*1322 FILLER_0_103_105
*1323 FILLER_0_103_1057
*1324 FILLER_0_103_1063
*1325 FILLER_0_103_1065
*1326 FILLER_0_103_1077
*1327 FILLER_0_103_1089
*1328 FILLER_0_103_1101
*1329 FILLER_0_103_111
*1330 FILLER_0_103_1113
*1331 FILLER_0_103_1119
*1332 FILLER_0_103_1121
*1333 FILLER_0_103_113
*1334 FILLER_0_103_1133
*1335 FILLER_0_103_1145
*1336 FILLER_0_103_1157
*1337 FILLER_0_103_1169
*1338 FILLER_0_103_1175
*1339 FILLER_0_103_1177
*1340 FILLER_0_103_1189
*1341 FILLER_0_103_1201
*1342 FILLER_0_103_1213
*1343 FILLER_0_103_1225
*1344 FILLER_0_103_1231
*1345 FILLER_0_103_1233
*1346 FILLER_0_103_1245
*1347 FILLER_0_103_125
*1348 FILLER_0_103_1257
*1349 FILLER_0_103_1269
*1350 FILLER_0_103_1281
*1351 FILLER_0_103_1287
*1352 FILLER_0_103_1289
*1353 FILLER_0_103_1301
*1354 FILLER_0_103_1313
*1355 FILLER_0_103_1325
*1356 FILLER_0_103_1337
*1357 FILLER_0_103_1343
*1358 FILLER_0_103_1345
*1359 FILLER_0_103_1357
*1360 FILLER_0_103_1369
*1361 FILLER_0_103_137
*1362 FILLER_0_103_1381
*1363 FILLER_0_103_1393
*1364 FILLER_0_103_1399
*1365 FILLER_0_103_1401
*1366 FILLER_0_103_1413
*1367 FILLER_0_103_1425
*1368 FILLER_0_103_1437
*1369 FILLER_0_103_1449
*1370 FILLER_0_103_1455
*1371 FILLER_0_103_1457
*1372 FILLER_0_103_1469
*1373 FILLER_0_103_1481
*1374 FILLER_0_103_149
*1375 FILLER_0_103_1493
*1376 FILLER_0_103_15
*1377 FILLER_0_103_1505
*1378 FILLER_0_103_1511
*1379 FILLER_0_103_1513
*1380 FILLER_0_103_1525
*1381 FILLER_0_103_1537
*1382 FILLER_0_103_1549
*1383 FILLER_0_103_1561
*1384 FILLER_0_103_1567
*1385 FILLER_0_103_1569
*1386 FILLER_0_103_1581
*1387 FILLER_0_103_1593
*1388 FILLER_0_103_1605
*1389 FILLER_0_103_161
*1390 FILLER_0_103_1617
*1391 FILLER_0_103_1623
*1392 FILLER_0_103_1625
*1393 FILLER_0_103_1637
*1394 FILLER_0_103_1649
*1395 FILLER_0_103_1661
*1396 FILLER_0_103_167
*1397 FILLER_0_103_1673
*1398 FILLER_0_103_1679
*1399 FILLER_0_103_1681
*1400 FILLER_0_103_169
*1401 FILLER_0_103_1693
*1402 FILLER_0_103_1705
*1403 FILLER_0_103_1717
*1404 FILLER_0_103_1729
*1405 FILLER_0_103_1735
*1406 FILLER_0_103_1737
*1407 FILLER_0_103_1749
*1408 FILLER_0_103_1761
*1409 FILLER_0_103_1773
*1410 FILLER_0_103_1785
*1411 FILLER_0_103_1791
*1412 FILLER_0_103_1793
*1413 FILLER_0_103_1805
*1414 FILLER_0_103_181
*1415 FILLER_0_103_1817
*1416 FILLER_0_103_1829
*1417 FILLER_0_103_1841
*1418 FILLER_0_103_1847
*1419 FILLER_0_103_1849
*1420 FILLER_0_103_1861
*1421 FILLER_0_103_1873
*1422 FILLER_0_103_1885
*1423 FILLER_0_103_1897
*1424 FILLER_0_103_1903
*1425 FILLER_0_103_1905
*1426 FILLER_0_103_1917
*1427 FILLER_0_103_193
*1428 FILLER_0_103_205
*1429 FILLER_0_103_217
*1430 FILLER_0_103_223
*1431 FILLER_0_103_225
*1432 FILLER_0_103_237
*1433 FILLER_0_103_249
*1434 FILLER_0_103_261
*1435 FILLER_0_103_27
*1436 FILLER_0_103_273
*1437 FILLER_0_103_279
*1438 FILLER_0_103_281
*1439 FILLER_0_103_293
*1440 FILLER_0_103_3
*1441 FILLER_0_103_305
*1442 FILLER_0_103_317
*1443 FILLER_0_103_329
*1444 FILLER_0_103_335
*1445 FILLER_0_103_337
*1446 FILLER_0_103_349
*1447 FILLER_0_103_361
*1448 FILLER_0_103_373
*1449 FILLER_0_103_385
*1450 FILLER_0_103_39
*1451 FILLER_0_103_391
*1452 FILLER_0_103_393
*1453 FILLER_0_103_405
*1454 FILLER_0_103_417
*1455 FILLER_0_103_429
*1456 FILLER_0_103_441
*1457 FILLER_0_103_447
*1458 FILLER_0_103_449
*1459 FILLER_0_103_461
*1460 FILLER_0_103_473
*1461 FILLER_0_103_485
*1462 FILLER_0_103_497
*1463 FILLER_0_103_503
*1464 FILLER_0_103_505
*1465 FILLER_0_103_51
*1466 FILLER_0_103_517
*1467 FILLER_0_103_529
*1468 FILLER_0_103_541
*1469 FILLER_0_103_55
*1470 FILLER_0_103_553
*1471 FILLER_0_103_559
*1472 FILLER_0_103_561
*1473 FILLER_0_103_57
*1474 FILLER_0_103_573
*1475 FILLER_0_103_585
*1476 FILLER_0_103_597
*1477 FILLER_0_103_609
*1478 FILLER_0_103_615
*1479 FILLER_0_103_617
*1480 FILLER_0_103_629
*1481 FILLER_0_103_641
*1482 FILLER_0_103_653
*1483 FILLER_0_103_665
*1484 FILLER_0_103_671
*1485 FILLER_0_103_673
*1486 FILLER_0_103_685
*1487 FILLER_0_103_69
*1488 FILLER_0_103_697
*1489 FILLER_0_103_709
*1490 FILLER_0_103_721
*1491 FILLER_0_103_727
*1492 FILLER_0_103_729
*1493 FILLER_0_103_741
*1494 FILLER_0_103_753
*1495 FILLER_0_103_765
*1496 FILLER_0_103_777
*1497 FILLER_0_103_783
*1498 FILLER_0_103_785
*1499 FILLER_0_103_797
*1500 FILLER_0_103_809
*1501 FILLER_0_103_81
*1502 FILLER_0_103_821
*1503 FILLER_0_103_833
*1504 FILLER_0_103_839
*1505 FILLER_0_103_841
*1506 FILLER_0_103_853
*1507 FILLER_0_103_865
*1508 FILLER_0_103_877
*1509 FILLER_0_103_889
*1510 FILLER_0_103_895
*1511 FILLER_0_103_897
*1512 FILLER_0_103_909
*1513 FILLER_0_103_921
*1514 FILLER_0_103_93
*1515 FILLER_0_103_933
*1516 FILLER_0_103_945
*1517 FILLER_0_103_951
*1518 FILLER_0_103_953
*1519 FILLER_0_103_965
*1520 FILLER_0_103_977
*1521 FILLER_0_103_989
*1522 FILLER_0_104_1005
*1523 FILLER_0_104_1017
*1524 FILLER_0_104_1029
*1525 FILLER_0_104_1035
*1526 FILLER_0_104_1037