*SPEF "ieee 1481-1999"
*DESIGN "vajra_caravel_soc"
*DATE "11:11:11 Fri 11 11, 1111"
*VENDOR "OpenRCX"
*PROGRAM "Parallel Extraction"
*VERSION "1.0"
*DESIGN_FLOW "NAME_SCOPE LOCAL" "PIN_CAP NONE"
*DIVIDER /
*DELIMITER :
*BUS_DELIMITER []
*T_UNIT 1 NS
*C_UNIT 1 PF
*R_UNIT 1 OHM
*L_UNIT 1 HENRY

*NAME_MAP
*1 io_in[0]
*2 io_in[10]
*3 io_in[11]
*4 io_in[12]
*5 io_in[13]
*6 io_in[14]
*7 io_in[15]
*8 io_in[16]
*9 io_in[17]
*10 io_in[18]
*11 io_in[19]
*12 io_in[1]
*13 io_in[20]
*14 io_in[21]
*15 io_in[22]
*16 io_in[23]
*17 io_in[24]
*18 io_in[25]
*19 io_in[26]
*20 io_in[27]
*21 io_in[28]
*22 io_in[29]
*23 io_in[2]
*24 io_in[30]
*25 io_in[31]
*26 io_in[32]
*27 io_in[33]
*28 io_in[34]
*29 io_in[35]
*30 io_in[36]
*31 io_in[37]
*32 io_in[3]
*33 io_in[4]
*34 io_in[5]
*35 io_in[6]
*36 io_in[7]
*37 io_in[8]
*38 io_in[9]
*39 net24
*40 net34
*41 net35
*42 net36
*43 net37
*44 net38
*45 net39
*46 net40
*47 net41
*48 net42
*49 net43
*50 net25
*51 net44
*52 net45
*53 net46
*54 net47
*55 net48
*56 net49
*57 net50
*58 net51
*59 net52
*60 net53
*61 net26
*62 net54
*63 net55
*64 net56
*65 net57
*66 net58
*67 net59
*68 net60
*69 net61
*70 net27
*71 net28
*72 net29
*73 net30
*74 net31
*75 net32
*76 net33
*77 net62
*78 net64
*79 net65
*80 net66
*81 net67
*82 net68
*83 net69
*84 net70
*85 net71
*86 net72
*87 net73
*88 net63
*89 net74
*90 net75
*91 net76
*92 net77
*93 io_out[24]
*94 io_out[25]
*95 io_out[26]
*96 io_out[27]
*97 io_out[28]
*98 io_out[29]
*99 io_out[2]
*100 io_out[30]
*101 io_out[31]
*102 io_out[32]
*103 io_out[33]
*104 io_out[34]
*105 io_out[35]
*106 io_out[36]
*107 io_out[37]
*108 io_out[3]
*109 io_out[4]
*110 io_out[5]
*111 io_out[6]
*112 io_out[7]
*113 io_out[8]
*114 io_out[9]
*121 wb_clk_i
*122 wb_rst_i
*123 _000_
*124 _001_
*125 _002_
*126 _003_
*127 _004_
*128 _005_
*129 _006_
*130 _007_
*131 _008_
*132 _009_
*133 _010_
*134 _011_
*135 _012_
*136 _013_
*137 _014_
*138 _015_
*139 _016_
*140 _017_
*141 _018_
*142 _019_
*143 _020_
*144 _021_
*145 _022_
*146 _023_
*147 _024_
*148 _025_
*149 _026_
*150 _027_
*151 _028_
*152 _029_
*153 _030_
*154 _031_
*155 _032_
*156 _033_
*157 _034_
*158 _035_
*159 _036_
*160 _037_
*161 _038_
*162 _039_
*163 _040_
*164 _041_
*165 _042_
*166 _043_
*167 _044_
*168 _045_
*169 _046_
*170 _047_
*171 _048_
*172 _049_
*173 _050_
*174 _051_
*175 _052_
*176 _053_
*177 _054_
*178 _055_
*179 _056_
*180 _057_
*181 _058_
*182 _059_
*183 _060_
*184 _061_
*185 _062_
*186 _063_
*187 _064_
*188 _065_
*189 _066_
*190 _067_
*191 _068_
*192 _069_
*193 _070_
*194 _071_
*195 _072_
*196 _073_
*197 _074_
*198 _075_
*199 _076_
*200 _077_
*201 _078_
*202 _079_
*203 _080_
*204 _081_
*205 _082_
*206 _083_
*207 _084_
*208 _085_
*209 _086_
*210 _087_
*211 _088_
*212 _089_
*213 _090_
*214 _091_
*215 _092_
*216 _093_
*217 _094_
*218 _095_
*219 _096_
*220 _097_
*221 _098_
*222 _099_
*223 _100_
*224 _101_
*225 _102_
*226 _103_
*227 _104_
*228 _105_
*229 _106_
*230 _107_
*231 _108_
*232 _109_
*233 _110_
*234 _111_
*235 _112_
*236 _113_
*237 _114_
*238 _115_
*239 _116_
*240 _117_
*241 _118_
*242 _119_
*243 _120_
*244 _121_
*245 _122_
*246 _123_
*247 _124_
*248 _125_
*249 _126_
*250 _127_
*251 _128_
*252 _129_
*253 _130_
*254 _131_
*255 _132_
*256 _133_
*257 _134_
*258 _135_
*259 _136_
*260 _137_
*261 _138_
*262 _139_
*263 _140_
*264 _141_
*265 _142_
*266 _143_
*267 _144_
*268 _145_
*269 _146_
*270 _147_
*271 _148_
*272 _149_
*273 _150_
*274 _151_
*275 _152_
*276 _153_
*277 _154_
*278 _155_
*279 _156_
*280 _157_
*281 _158_
*282 _159_
*283 _160_
*284 _161_
*285 _162_
*286 _163_
*287 _164_
*288 _165_
*289 _166_
*290 _167_
*291 _168_
*292 _169_
*293 _170_
*294 _171_
*295 _172_
*296 _173_
*297 _174_
*298 _175_
*299 _176_
*300 _177_
*301 _178_
*302 _179_
*303 _180_
*304 _181_
*305 _182_
*306 _183_
*307 _184_
*308 _185_
*309 _186_
*310 _187_
*311 _188_
*312 _189_
*313 _190_
*314 _191_
*315 _192_
*316 _193_
*317 _194_
*318 _195_
*319 _196_
*320 _197_
*321 _198_
*322 _199_
*323 _200_
*324 _201_
*325 _202_
*326 _203_
*327 _204_
*328 _205_
*329 _206_
*330 _207_
*331 _208_
*332 _209_
*333 _210_
*334 _211_
*335 _212_
*336 _213_
*337 _214_
*338 _215_
*339 _216_
*340 _217_
*341 _218_
*342 clknet_0_wb_clk_i
*343 clknet_2_0__leaf_wb_clk_i
*344 clknet_2_1__leaf_wb_clk_i
*345 clknet_2_2__leaf_wb_clk_i
*346 clknet_2_3__leaf_wb_clk_i
*347 net1
*348 net10
*349 net100
*350 net101
*351 net102
*352 net103
*353 net104
*354 net105
*355 net106
*356 net107
*357 net108
*358 net109
*359 net11
*360 net110
*361 net111
*362 net112
*363 net12
*364 net13
*365 net14
*366 net15
*367 net16
*368 net17
*369 net18
*370 net19
*371 net2
*372 net20
*373 net21
*374 net22
*375 net23
*376 net3
*377 net4
*378 net5
*379 net6
*380 net7
*381 net78
*382 net79
*383 net8
*384 net80
*385 net81
*386 net82
*387 net83
*388 net84
*389 net85
*390 net86
*391 net87
*392 net88
*393 net89
*394 net9
*395 net90
*396 net91
*397 net92
*398 net93
*399 net94
*400 net95
*401 net96
*402 net97
*403 net98
*404 net99
*405 u_cpu\.ALUResult_E\[10\]
*406 u_cpu\.ALUResult_E\[11\]
*407 u_cpu\.ALUResult_E\[12\]
*408 u_cpu\.ALUResult_E\[13\]
*409 u_cpu\.ALUResult_E\[14\]
*410 u_cpu\.ALUResult_E\[15\]
*411 u_cpu\.ALUResult_E\[16\]
*412 u_cpu\.ALUResult_E\[17\]
*413 u_cpu\.ALUResult_E\[18\]
*414 u_cpu\.ALUResult_E\[19\]
*415 u_cpu\.ALUResult_E\[20\]
*416 u_cpu\.ALUResult_E\[21\]
*417 u_cpu\.ALUResult_E\[22\]
*418 u_cpu\.ALUResult_E\[23\]
*419 u_cpu\.ALUResult_E\[24\]
*420 u_cpu\.ALUResult_E\[25\]
*421 u_cpu\.ALUResult_E\[26\]
*422 u_cpu\.ALUResult_E\[27\]
*423 u_cpu\.ALUResult_E\[28\]
*424 u_cpu\.ALUResult_E\[29\]
*425 u_cpu\.ALUResult_E\[2\]
*426 u_cpu\.ALUResult_E\[30\]
*427 u_cpu\.ALUResult_E\[31\]
*428 u_cpu\.ALUResult_E\[3\]
*429 u_cpu\.ALUResult_E\[4\]
*430 u_cpu\.ALUResult_E\[5\]
*431 u_cpu\.ALUResult_E\[6\]
*432 u_cpu\.ALUResult_E\[7\]
*433 u_cpu\.ALUResult_E\[8\]
*434 u_cpu\.ALUResult_E\[9\]
*435 u_cpu\.PC_F\[10\]
*436 u_cpu\.PC_F\[11\]
*437 u_cpu\.PC_F\[12\]
*438 u_cpu\.PC_F\[13\]
*439 u_cpu\.PC_F\[14\]
*440 u_cpu\.PC_F\[15\]
*441 u_cpu\.PC_F\[16\]
*442 u_cpu\.PC_F\[17\]
*443 u_cpu\.PC_F\[18\]
*444 u_cpu\.PC_F\[19\]
*445 u_cpu\.PC_F\[20\]
*446 u_cpu\.PC_F\[21\]
*447 u_cpu\.PC_F\[22\]
*448 u_cpu\.PC_F\[23\]
*449 u_cpu\.PC_F\[24\]
*450 u_cpu\.PC_F\[25\]
*451 u_cpu\.PC_F\[26\]
*452 u_cpu\.PC_F\[27\]
*453 u_cpu\.PC_F\[28\]
*454 u_cpu\.PC_F\[29\]
*455 u_cpu\.PC_F\[2\]
*456 u_cpu\.PC_F\[30\]
*457 u_cpu\.PC_F\[31\]
*458 u_cpu\.PC_F\[3\]
*459 u_cpu\.PC_F\[4\]
*460 u_cpu\.PC_F\[5\]
*461 u_cpu\.PC_F\[6\]
*462 u_cpu\.PC_F\[7\]
*463 u_cpu\.PC_F\[8\]
*464 u_cpu\.PC_F\[9\]
*465 u_cpu\.counter\[0\]
*466 u_cpu\.counter\[10\]
*467 u_cpu\.counter\[11\]
*468 u_cpu\.counter\[12\]
*469 u_cpu\.counter\[13\]
*470 u_cpu\.counter\[14\]
*471 u_cpu\.counter\[15\]
*472 u_cpu\.counter\[16\]
*473 u_cpu\.counter\[17\]
*474 u_cpu\.counter\[18\]
*475 u_cpu\.counter\[19\]
*476 u_cpu\.counter\[1\]
*477 u_cpu\.counter\[20\]
*478 u_cpu\.counter\[21\]
*479 u_cpu\.counter\[22\]
*480 u_cpu\.counter\[23\]
*481 u_cpu\.counter\[24\]
*482 u_cpu\.counter\[25\]
*483 u_cpu\.counter\[2\]
*484 u_cpu\.counter\[3\]
*485 u_cpu\.counter\[4\]
*486 u_cpu\.counter\[5\]
*487 u_cpu\.counter\[6\]
*488 u_cpu\.counter\[7\]
*489 u_cpu\.counter\[8\]
*490 u_cpu\.counter\[9\]
*491 ANTENNA_1
*492 ANTENNA_2
*493 ANTENNA_3
*494 ANTENNA_4
*495 ANTENNA_5
*496 ANTENNA_6
*497 FILLER_0_0_1005
*498 FILLER_0_0_1009
*499 FILLER_0_0_1021
*500 FILLER_0_0_1033
*501 FILLER_0_0_1037
*502 FILLER_0_0_1045
*503 FILLER_0_0_1057
*504 FILLER_0_0_1063
*505 FILLER_0_0_1065
*506 FILLER_0_0_1077
*507 FILLER_0_0_1089
*508 FILLER_0_0_109
*509 FILLER_0_0_1093
*510 FILLER_0_0_1101
*511 FILLER_0_0_1105
*512 FILLER_0_0_1117
*513 FILLER_0_0_1121
*514 FILLER_0_0_113
*515 FILLER_0_0_1133
*516 FILLER_0_0_1145
*517 FILLER_0_0_1149
*518 FILLER_0_0_1161
*519 FILLER_0_0_1173
*520 FILLER_0_0_1177
*521 FILLER_0_0_118
*522 FILLER_0_0_1189
*523 FILLER_0_0_1201
*524 FILLER_0_0_1205
*525 FILLER_0_0_1217
*526 FILLER_0_0_1229
*527 FILLER_0_0_1233
*528 FILLER_0_0_1238
*529 FILLER_0_0_1250
*530 FILLER_0_0_1258
*531 FILLER_0_0_1261
*532 FILLER_0_0_1273
*533 FILLER_0_0_1285
*534 FILLER_0_0_1289
*535 FILLER_0_0_1297
*536 FILLER_0_0_130
*537 FILLER_0_0_1304
*538 FILLER_0_0_1317
*539 FILLER_0_0_1329
*540 FILLER_0_0_1341
*541 FILLER_0_0_1345
*542 FILLER_0_0_1357
*543 FILLER_0_0_1365
*544 FILLER_0_0_1371
*545 FILLER_0_0_1373
*546 FILLER_0_0_138
*547 FILLER_0_0_1385
*548 FILLER_0_0_1397
*549 FILLER_0_0_1401
*550 FILLER_0_0_141
*551 FILLER_0_0_1413
*552 FILLER_0_0_1425
*553 FILLER_0_0_1429
*554 FILLER_0_0_1434
*555 FILLER_0_0_1446
*556 FILLER_0_0_1454
*557 FILLER_0_0_1457
*558 FILLER_0_0_1469
*559 FILLER_0_0_1481
*560 FILLER_0_0_1485
*561 FILLER_0_0_1497
*562 FILLER_0_0_1504
*563 FILLER_0_0_1513
*564 FILLER_0_0_1525
*565 FILLER_0_0_153
*566 FILLER_0_0_1537
*567 FILLER_0_0_1541
*568 FILLER_0_0_1553
*569 FILLER_0_0_1561
*570 FILLER_0_0_1567
*571 FILLER_0_0_1569
*572 FILLER_0_0_1581
*573 FILLER_0_0_1593
*574 FILLER_0_0_1597
*575 FILLER_0_0_1609
*576 FILLER_0_0_1621
*577 FILLER_0_0_1625
*578 FILLER_0_0_1630
*579 FILLER_0_0_1642
*580 FILLER_0_0_165
*581 FILLER_0_0_1650
*582 FILLER_0_0_1653
*583 FILLER_0_0_1665
*584 FILLER_0_0_1677
*585 FILLER_0_0_1681
*586 FILLER_0_0_169
*587 FILLER_0_0_1693
*588 FILLER_0_0_1700
*589 FILLER_0_0_1709
*590 FILLER_0_0_1721
*591 FILLER_0_0_1733
*592 FILLER_0_0_1737
*593 FILLER_0_0_1749
*594 FILLER_0_0_1757
*595 FILLER_0_0_1763
*596 FILLER_0_0_1765
*597 FILLER_0_0_1777
*598 FILLER_0_0_1789
*599 FILLER_0_0_1793
*600 FILLER_0_0_18
*601 FILLER_0_0_1805
*602 FILLER_0_0_181
*603 FILLER_0_0_1817
*604 FILLER_0_0_1821
*605 FILLER_0_0_1833
*606 FILLER_0_0_1845
*607 FILLER_0_0_1849
*608 FILLER_0_0_1861
*609 FILLER_0_0_1873
*610 FILLER_0_0_1877
*611 FILLER_0_0_188
*612 FILLER_0_0_1889
*613 FILLER_0_0_1896
*614 FILLER_0_0_1905
*615 FILLER_0_0_1917
*616 FILLER_0_0_197
*617 FILLER_0_0_209
*618 FILLER_0_0_221
*619 FILLER_0_0_225
*620 FILLER_0_0_237
*621 FILLER_0_0_245
*622 FILLER_0_0_251
*623 FILLER_0_0_253
*624 FILLER_0_0_26
*625 FILLER_0_0_265
*626 FILLER_0_0_277
*627 FILLER_0_0_281
*628 FILLER_0_0_29
*629 FILLER_0_0_293
*630 FILLER_0_0_305
*631 FILLER_0_0_315
*632 FILLER_0_0_327
*633 FILLER_0_0_335
*634 FILLER_0_0_337
*635 FILLER_0_0_349
*636 FILLER_0_0_361
*637 FILLER_0_0_365
*638 FILLER_0_0_377
*639 FILLER_0_0_385
*640 FILLER_0_0_391
*641 FILLER_0_0_393
*642 FILLER_0_0_405
*643 FILLER_0_0_41
*644 FILLER_0_0_417
*645 FILLER_0_0_421
*646 FILLER_0_0_433
*647 FILLER_0_0_445
*648 FILLER_0_0_449
*649 FILLER_0_0_461
*650 FILLER_0_0_473
*651 FILLER_0_0_477
*652 FILLER_0_0_489
*653 FILLER_0_0_49
*654 FILLER_0_0_501
*655 FILLER_0_0_505
*656 FILLER_0_0_517
*657 FILLER_0_0_529
*658 FILLER_0_0_533
*659 FILLER_0_0_545
*660 FILLER_0_0_557
*661 FILLER_0_0_561
*662 FILLER_0_0_57
*663 FILLER_0_0_573
*664 FILLER_0_0_580
*665 FILLER_0_0_589
*666 FILLER_0_0_6
*667 FILLER_0_0_601
*668 FILLER_0_0_613
*669 FILLER_0_0_617
*670 FILLER_0_0_629
*671 FILLER_0_0_641
*672 FILLER_0_0_651
*673 FILLER_0_0_663
*674 FILLER_0_0_671
*675 FILLER_0_0_673
*676 FILLER_0_0_685
*677 FILLER_0_0_69
*678 FILLER_0_0_697
*679 FILLER_0_0_701
*680 FILLER_0_0_713
*681 FILLER_0_0_725
*682 FILLER_0_0_729
*683 FILLER_0_0_741
*684 FILLER_0_0_753
*685 FILLER_0_0_757
*686 FILLER_0_0_769
*687 FILLER_0_0_776
*688 FILLER_0_0_785
*689 FILLER_0_0_797
*690 FILLER_0_0_809
*691 FILLER_0_0_81
*692 FILLER_0_0_813
*693 FILLER_0_0_825
*694 FILLER_0_0_837
*695 FILLER_0_0_841
*696 FILLER_0_0_846
*697 FILLER_0_0_85
*698 FILLER_0_0_858
*699 FILLER_0_0_866
*700 FILLER_0_0_869
*701 FILLER_0_0_881
*702 FILLER_0_0_893
*703 FILLER_0_0_897
*704 FILLER_0_0_905
*705 FILLER_0_0_912
*706 FILLER_0_0_925
*707 FILLER_0_0_937
*708 FILLER_0_0_949
*709 FILLER_0_0_953
*710 FILLER_0_0_965
*711 FILLER_0_0_97
*712 FILLER_0_0_972
*713 FILLER_0_0_981
*714 FILLER_0_0_993
*715 FILLER_0_100_1005
*716 FILLER_0_100_1017
*717 FILLER_0_100_1029
*718 FILLER_0_100_1035
*719 FILLER_0_100_1037
*720 FILLER_0_100_1049
*721 FILLER_0_100_1061
*722 FILLER_0_100_1073
*723 FILLER_0_100_1085
*724 FILLER_0_100_109
*725 FILLER_0_100_1091
*726 FILLER_0_100_1093
*727 FILLER_0_100_1105
*728 FILLER_0_100_1117
*729 FILLER_0_100_1129
*730 FILLER_0_100_1141
*731 FILLER_0_100_1147
*732 FILLER_0_100_1149
*733 FILLER_0_100_1161
*734 FILLER_0_100_1173
*735 FILLER_0_100_1185
*736 FILLER_0_100_1197
*737 FILLER_0_100_1203
*738 FILLER_0_100_1205
*739 FILLER_0_100_121
*740 FILLER_0_100_1217
*741 FILLER_0_100_1229
*742 FILLER_0_100_1241
*743 FILLER_0_100_1253
*744 FILLER_0_100_1259
*745 FILLER_0_100_1261
*746 FILLER_0_100_1273
*747 FILLER_0_100_1285
*748 FILLER_0_100_1297
*749 FILLER_0_100_1309
*750 FILLER_0_100_1315
*751 FILLER_0_100_1317
*752 FILLER_0_100_1329
*753 FILLER_0_100_133
*754 FILLER_0_100_1341
*755 FILLER_0_100_1353
*756 FILLER_0_100_1365
*757 FILLER_0_100_1371
*758 FILLER_0_100_1373
*759 FILLER_0_100_1385
*760 FILLER_0_100_139
*761 FILLER_0_100_1397
*762 FILLER_0_100_1409
*763 FILLER_0_100_141
*764 FILLER_0_100_1421
*765 FILLER_0_100_1427
*766 FILLER_0_100_1429
*767 FILLER_0_100_1441
*768 FILLER_0_100_1453
*769 FILLER_0_100_1465
*770 FILLER_0_100_1477
*771 FILLER_0_100_1483
*772 FILLER_0_100_1485
*773 FILLER_0_100_1497
*774 FILLER_0_100_15
*775 FILLER_0_100_1509
*776 FILLER_0_100_1521
*777 FILLER_0_100_153
*778 FILLER_0_100_1533
*779 FILLER_0_100_1539
*780 FILLER_0_100_1541
*781 FILLER_0_100_1553
*782 FILLER_0_100_1565
*783 FILLER_0_100_1577
*784 FILLER_0_100_1589
*785 FILLER_0_100_1595
*786 FILLER_0_100_1597
*787 FILLER_0_100_1609
*788 FILLER_0_100_1621
*789 FILLER_0_100_1633
*790 FILLER_0_100_1645
*791 FILLER_0_100_165
*792 FILLER_0_100_1651
*793 FILLER_0_100_1653
*794 FILLER_0_100_1665
*795 FILLER_0_100_1677
*796 FILLER_0_100_1689
*797 FILLER_0_100_1701
*798 FILLER_0_100_1707
*799 FILLER_0_100_1709
*800 FILLER_0_100_1721
*801 FILLER_0_100_1733
*802 FILLER_0_100_1745
*803 FILLER_0_100_1757
*804 FILLER_0_100_1763
*805 FILLER_0_100_1765
*806 FILLER_0_100_177
*807 FILLER_0_100_1777
*808 FILLER_0_100_1789
*809 FILLER_0_100_1801
*810 FILLER_0_100_1813
*811 FILLER_0_100_1819
*812 FILLER_0_100_1821
*813 FILLER_0_100_1833
*814 FILLER_0_100_1845
*815 FILLER_0_100_1857
*816 FILLER_0_100_1869
*817 FILLER_0_100_1875
*818 FILLER_0_100_1877
*819 FILLER_0_100_1889
*820 FILLER_0_100_189
*821 FILLER_0_100_1901
*822 FILLER_0_100_1913
*823 FILLER_0_100_1925
*824 FILLER_0_100_195
*825 FILLER_0_100_197
*826 FILLER_0_100_209
*827 FILLER_0_100_221
*828 FILLER_0_100_233
*829 FILLER_0_100_245
*830 FILLER_0_100_251
*831 FILLER_0_100_253
*832 FILLER_0_100_265
*833 FILLER_0_100_27
*834 FILLER_0_100_277
*835 FILLER_0_100_289
*836 FILLER_0_100_29
*837 FILLER_0_100_3
*838 FILLER_0_100_301
*839 FILLER_0_100_307
*840 FILLER_0_100_309
*841 FILLER_0_100_321
*842 FILLER_0_100_333
*843 FILLER_0_100_345
*844 FILLER_0_100_357
*845 FILLER_0_100_363
*846 FILLER_0_100_365
*847 FILLER_0_100_377
*848 FILLER_0_100_389
*849 FILLER_0_100_401
*850 FILLER_0_100_41
*851 FILLER_0_100_413
*852 FILLER_0_100_419
*853 FILLER_0_100_421
*854 FILLER_0_100_433
*855 FILLER_0_100_445
*856 FILLER_0_100_457
*857 FILLER_0_100_469
*858 FILLER_0_100_475
*859 FILLER_0_100_477
*860 FILLER_0_100_489
*861 FILLER_0_100_501
*862 FILLER_0_100_513
*863 FILLER_0_100_525
*864 FILLER_0_100_53
*865 FILLER_0_100_531
*866 FILLER_0_100_533
*867 FILLER_0_100_545
*868 FILLER_0_100_557
*869 FILLER_0_100_569
*870 FILLER_0_100_581
*871 FILLER_0_100_587
*872 FILLER_0_100_589
*873 FILLER_0_100_601
*874 FILLER_0_100_613
*875 FILLER_0_100_625
*876 FILLER_0_100_637
*877 FILLER_0_100_643
*878 FILLER_0_100_645
*879 FILLER_0_100_65
*880 FILLER_0_100_657
*881 FILLER_0_100_669
*882 FILLER_0_100_681
*883 FILLER_0_100_693
*884 FILLER_0_100_699
*885 FILLER_0_100_701
*886 FILLER_0_100_713
*887 FILLER_0_100_725
*888 FILLER_0_100_737
*889 FILLER_0_100_749
*890 FILLER_0_100_755
*891 FILLER_0_100_757
*892 FILLER_0_100_769
*893 FILLER_0_100_77
*894 FILLER_0_100_781
*895 FILLER_0_100_793
*896 FILLER_0_100_805
*897 FILLER_0_100_811
*898 FILLER_0_100_813
*899 FILLER_0_100_825
*900 FILLER_0_100_83
*901 FILLER_0_100_837
*902 FILLER_0_100_849
*903 FILLER_0_100_85
*904 FILLER_0_100_861
*905 FILLER_0_100_867
*906 FILLER_0_100_869
*907 FILLER_0_100_881
*908 FILLER_0_100_893
*909 FILLER_0_100_905
*910 FILLER_0_100_917
*911 FILLER_0_100_923
*912 FILLER_0_100_925
*913 FILLER_0_100_937
*914 FILLER_0_100_949
*915 FILLER_0_100_961
*916 FILLER_0_100_97
*917 FILLER_0_100_973
*918 FILLER_0_100_979
*919 FILLER_0_100_981
*920 FILLER_0_100_993
*921 FILLER_0_101_1001
*922 FILLER_0_101_1007
*923 FILLER_0_101_1009
*924 FILLER_0_101_1021
*925 FILLER_0_101_1033
*926 FILLER_0_101_1045
*927 FILLER_0_101_105
*928 FILLER_0_101_1057
*929 FILLER_0_101_1063
*930 FILLER_0_101_1065
*931 FILLER_0_101_1077
*932 FILLER_0_101_1089
*933 FILLER_0_101_1101
*934 FILLER_0_101_111
*935 FILLER_0_101_1113
*936 FILLER_0_101_1119
*937 FILLER_0_101_1121
*938 FILLER_0_101_113
*939 FILLER_0_101_1133
*940 FILLER_0_101_1145
*941 FILLER_0_101_1157
*942 FILLER_0_101_1169
*943 FILLER_0_101_1175
*944 FILLER_0_101_1177
*945 FILLER_0_101_1189
*946 FILLER_0_101_1201
*947 FILLER_0_101_1213
*948 FILLER_0_101_1225
*949 FILLER_0_101_1231
*950 FILLER_0_101_1233
*951 FILLER_0_101_1245
*952 FILLER_0_101_125
*953 FILLER_0_101_1257
*954 FILLER_0_101_1269
*955 FILLER_0_101_1281
*956 FILLER_0_101_1287
*957 FILLER_0_101_1289
*958 FILLER_0_101_1301
*959 FILLER_0_101_1313
*960 FILLER_0_101_1325
*961 FILLER_0_101_1337
*962 FILLER_0_101_1343
*963 FILLER_0_101_1345
*964 FILLER_0_101_1357
*965 FILLER_0_101_1369
*966 FILLER_0_101_137
*967 FILLER_0_101_1381
*968 FILLER_0_101_1393
*969 FILLER_0_101_1399
*970 FILLER_0_101_1401
*971 FILLER_0_101_1413
*972 FILLER_0_101_1425
*973 FILLER_0_101_1437
*974 FILLER_0_101_1449
*975 FILLER_0_101_1455
*976 FILLER_0_101_1457
*977 FILLER_0_101_1469
*978 FILLER_0_101_1481
*979 FILLER_0_101_149
*980 FILLER_0_101_1493
*981 FILLER_0_101_1505
*982 FILLER_0_101_1511
*983 FILLER_0_101_1513
*984 FILLER_0_101_1525
*985 FILLER_0_101_1537
*986 FILLER_0_101_1549
*987 FILLER_0_101_1561
*988 FILLER_0_101_1567
*989 FILLER_0_101_1569
*990 FILLER_0_101_1581
*991 FILLER_0_101_1593
*992 FILLER_0_101_1605
*993 FILLER_0_101_161
*994 FILLER_0_101_1617
*995 FILLER_0_101_1623
*996 FILLER_0_101_1625
*997 FILLER_0_101_1637
*998 FILLER_0_101_1649
*999 FILLER_0_101_1661
*1000 FILLER_0_101_167
*1001 FILLER_0_101_1673
*1002 FILLER_0_101_1679
*1003 FILLER_0_101_1681
*1004 FILLER_0_101_169
*1005 FILLER_0_101_1693
*1006 FILLER_0_101_1705
*1007 FILLER_0_101_1717
*1008 FILLER_0_101_1729
*1009 FILLER_0_101_1735
*1010 FILLER_0_101_1737
*1011 FILLER_0_101_1749
*1012 FILLER_0_101_1761
*1013 FILLER_0_101_1773
*1014 FILLER_0_101_1785
*1015 FILLER_0_101_1791
*1016 FILLER_0_101_1793
*1017 FILLER_0_101_1805
*1018 FILLER_0_101_181
*1019 FILLER_0_101_1817
*1020 FILLER_0_101_1829
*1021 FILLER_0_101_1841
*1022 FILLER_0_101_1847
*1023 FILLER_0_101_1849
*1024 FILLER_0_101_1861
*1025 FILLER_0_101_1873
*1026 FILLER_0_101_1885
*1027 FILLER_0_101_1897
*1028 FILLER_0_101_1903
*1029 FILLER_0_101_1905
*1030 FILLER_0_101_1917
*1031 FILLER_0_101_193
*1032 FILLER_0_101_205
*1033 FILLER_0_101_21
*1034 FILLER_0_101_217
*1035 FILLER_0_101_223
*1036 FILLER_0_101_225
*1037 FILLER_0_101_237
*1038 FILLER_0_101_249
*1039 FILLER_0_101_261
*1040 FILLER_0_101_273
*1041 FILLER_0_101_279
*1042 FILLER_0_101_281
*1043 FILLER_0_101_293
*1044 FILLER_0_101_305
*1045 FILLER_0_101_317
*1046 FILLER_0_101_329
*1047 FILLER_0_101_33
*1048 FILLER_0_101_335
*1049 FILLER_0_101_337
*1050 FILLER_0_101_349
*1051 FILLER_0_101_361
*1052 FILLER_0_101_373
*1053 FILLER_0_101_385
*1054 FILLER_0_101_391
*1055 FILLER_0_101_393
*1056 FILLER_0_101_405
*1057 FILLER_0_101_417
*1058 FILLER_0_101_429
*1059 FILLER_0_101_441
*1060 FILLER_0_101_447
*1061 FILLER_0_101_449
*1062 FILLER_0_101_45
*1063 FILLER_0_101_461
*1064 FILLER_0_101_473
*1065 FILLER_0_101_485
*1066 FILLER_0_101_497
*1067 FILLER_0_101_503
*1068 FILLER_0_101_505
*1069 FILLER_0_101_517
*1070 FILLER_0_101_529
*1071 FILLER_0_101_53
*1072 FILLER_0_101_541
*1073 FILLER_0_101_553
*1074 FILLER_0_101_559
*1075 FILLER_0_101_561
*1076 FILLER_0_101_57
*1077 FILLER_0_101_573
*1078 FILLER_0_101_585
*1079 FILLER_0_101_597
*1080 FILLER_0_101_609
*1081 FILLER_0_101_615
*1082 FILLER_0_101_617
*1083 FILLER_0_101_629
*1084 FILLER_0_101_641
*1085 FILLER_0_101_653
*1086 FILLER_0_101_665
*1087 FILLER_0_101_671
*1088 FILLER_0_101_673
*1089 FILLER_0_101_685
*1090 FILLER_0_101_69
*1091 FILLER_0_101_697
*1092 FILLER_0_101_709
*1093 FILLER_0_101_721
*1094 FILLER_0_101_727
*1095 FILLER_0_101_729
*1096 FILLER_0_101_741
*1097 FILLER_0_101_753
*1098 FILLER_0_101_765
*1099 FILLER_0_101_777
*1100 FILLER_0_101_783
*1101 FILLER_0_101_785
*1102 FILLER_0_101_797
*1103 FILLER_0_101_809
*1104 FILLER_0_101_81
*1105 FILLER_0_101_821
*1106 FILLER_0_101_833
*1107 FILLER_0_101_839
*1108 FILLER_0_101_841
*1109 FILLER_0_101_853
*1110 FILLER_0_101_865
*1111 FILLER_0_101_877
*1112 FILLER_0_101_889
*1113 FILLER_0_101_895
*1114 FILLER_0_101_897
*1115 FILLER_0_101_9
*1116 FILLER_0_101_909
*1117 FILLER_0_101_921
*1118 FILLER_0_101_93
*1119 FILLER_0_101_933
*1120 FILLER_0_101_945
*1121 FILLER_0_101_951
*1122 FILLER_0_101_953
*1123 FILLER_0_101_965
*1124 FILLER_0_101_977
*1125 FILLER_0_101_989
*1126 FILLER_0_102_1005
*1127 FILLER_0_102_1017
*1128 FILLER_0_102_1029
*1129 FILLER_0_102_1035
*1130 FILLER_0_102_1037
*1131 FILLER_0_102_1049
*1132 FILLER_0_102_1061
*1133 FILLER_0_102_1073
*1134 FILLER_0_102_1085
*1135 FILLER_0_102_109
*1136 FILLER_0_102_1091
*1137 FILLER_0_102_1093
*1138 FILLER_0_102_1105
*1139 FILLER_0_102_1117
*1140 FILLER_0_102_1129
*1141 FILLER_0_102_1141
*1142 FILLER_0_102_1147
*1143 FILLER_0_102_1149
*1144 FILLER_0_102_1161
*1145 FILLER_0_102_1173
*1146 FILLER_0_102_1185
*1147 FILLER_0_102_1197
*1148 FILLER_0_102_1203
*1149 FILLER_0_102_1205
*1150 FILLER_0_102_121
*1151 FILLER_0_102_1217
*1152 FILLER_0_102_1229
*1153 FILLER_0_102_1241
*1154 FILLER_0_102_1253
*1155 FILLER_0_102_1259
*1156 FILLER_0_102_1261
*1157 FILLER_0_102_1273
*1158 FILLER_0_102_1285
*1159 FILLER_0_102_1297
*1160 FILLER_0_102_1309
*1161 FILLER_0_102_1315
*1162 FILLER_0_102_1317
*1163 FILLER_0_102_1329
*1164 FILLER_0_102_133
*1165 FILLER_0_102_1341
*1166 FILLER_0_102_1353
*1167 FILLER_0_102_1365
*1168 FILLER_0_102_1371
*1169 FILLER_0_102_1373
*1170 FILLER_0_102_1385
*1171 FILLER_0_102_139
*1172 FILLER_0_102_1397
*1173 FILLER_0_102_1409
*1174 FILLER_0_102_141
*1175 FILLER_0_102_1421
*1176 FILLER_0_102_1427
*1177 FILLER_0_102_1429
*1178 FILLER_0_102_1441
*1179 FILLER_0_102_1453
*1180 FILLER_0_102_1465
*1181 FILLER_0_102_1477
*1182 FILLER_0_102_1483
*1183 FILLER_0_102_1485
*1184 FILLER_0_102_1497
*1185 FILLER_0_102_1509
*1186 FILLER_0_102_1521
*1187 FILLER_0_102_153
*1188 FILLER_0_102_1533
*1189 FILLER_0_102_1539
*1190 FILLER_0_102_1541
*1191 FILLER_0_102_1553
*1192 FILLER_0_102_1565
*1193 FILLER_0_102_1577
*1194 FILLER_0_102_1589
*1195 FILLER_0_102_1595
*1196 FILLER_0_102_1597
*1197 FILLER_0_102_1609
*1198 FILLER_0_102_1621
*1199 FILLER_0_102_1633
*1200 FILLER_0_102_1645
*1201 FILLER_0_102_165
*1202 FILLER_0_102_1651
*1203 FILLER_0_102_1653
*1204 FILLER_0_102_1665
*1205 FILLER_0_102_1677
*1206 FILLER_0_102_1689
*1207 FILLER_0_102_17
*1208 FILLER_0_102_1701
*1209 FILLER_0_102_1707
*1210 FILLER_0_102_1709
*1211 FILLER_0_102_1721
*1212 FILLER_0_102_1733
*1213 FILLER_0_102_1745
*1214 FILLER_0_102_1757
*1215 FILLER_0_102_1763
*1216 FILLER_0_102_1765
*1217 FILLER_0_102_177
*1218 FILLER_0_102_1777
*1219 FILLER_0_102_1789
*1220 FILLER_0_102_1801
*1221 FILLER_0_102_1813
*1222 FILLER_0_102_1819
*1223 FILLER_0_102_1821
*1224 FILLER_0_102_1833
*1225 FILLER_0_102_1845
*1226 FILLER_0_102_1857
*1227 FILLER_0_102_1869
*1228 FILLER_0_102_1875
*1229 FILLER_0_102_1877
*1230 FILLER_0_102_1889
*1231 FILLER_0_102_189
*1232 FILLER_0_102_1901
*1233 FILLER_0_102_1913
*1234 FILLER_0_102_1925
*1235 FILLER_0_102_195
*1236 FILLER_0_102_197
*1237 FILLER_0_102_209
*1238 FILLER_0_102_221
*1239 FILLER_0_102_233
*1240 FILLER_0_102_245
*1241 FILLER_0_102_25
*1242 FILLER_0_102_251
*1243 FILLER_0_102_253
*1244 FILLER_0_102_265
*1245 FILLER_0_102_277
*1246 FILLER_0_102_289
*1247 FILLER_0_102_29
*1248 FILLER_0_102_3
*1249 FILLER_0_102_301
*1250 FILLER_0_102_307
*1251 FILLER_0_102_309
*1252 FILLER_0_102_321
*1253 FILLER_0_102_333
*1254 FILLER_0_102_345
*1255 FILLER_0_102_357
*1256 FILLER_0_102_363
*1257 FILLER_0_102_365
*1258 FILLER_0_102_377
*1259 FILLER_0_102_389
*1260 FILLER_0_102_405
*1261 FILLER_0_102_41
*1262 FILLER_0_102_417
*1263 FILLER_0_102_421
*1264 FILLER_0_102_433
*1265 FILLER_0_102_445
*1266 FILLER_0_102_457
*1267 FILLER_0_102_469
*1268 FILLER_0_102_475
*1269 FILLER_0_102_477
*1270 FILLER_0_102_489
*1271 FILLER_0_102_501
*1272 FILLER_0_102_513
*1273 FILLER_0_102_525
*1274 FILLER_0_102_53
*1275 FILLER_0_102_531
*1276 FILLER_0_102_533
*1277 FILLER_0_102_545
*1278 FILLER_0_102_557
*1279 FILLER_0_102_569
*1280 FILLER_0_102_581
*1281 FILLER_0_102_587
*1282 FILLER_0_102_589
*1283 FILLER_0_102_601
*1284 FILLER_0_102_613
*1285 FILLER_0_102_625
*1286 FILLER_0_102_637
*1287 FILLER_0_102_643
*1288 FILLER_0_102_645
*1289 FILLER_0_102_65
*1290 FILLER_0_102_657
*1291 FILLER_0_102_669
*1292 FILLER_0_102_681
*1293 FILLER_0_102_693
*1294 FILLER_0_102_699
*1295 FILLER_0_102_701
*1296 FILLER_0_102_713
*1297 FILLER_0_102_725
*1298 FILLER_0_102_737
*1299 FILLER_0_102_749
*1300 FILLER_0_102_755
*1301 FILLER_0_102_757
*1302 FILLER_0_102_769
*1303 FILLER_0_102_77
*1304 FILLER_0_102_781
*1305 FILLER_0_102_793
*1306 FILLER_0_102_805
*1307 FILLER_0_102_811
*1308 FILLER_0_102_813
*1309 FILLER_0_102_825
*1310 FILLER_0_102_83
*1311 FILLER_0_102_837
*1312 FILLER_0_102_849
*1313 FILLER_0_102_85
*1314 FILLER_0_102_861
*1315 FILLER_0_102_867
*1316 FILLER_0_102_869
*1317 FILLER_0_102_881
*1318 FILLER_0_102_893
*1319 FILLER_0_102_905
*1320 FILLER_0_102_917
*1321 FILLER_0_102_923
*1322 FILLER_0_102_925
*1323 FILLER_0_102_937
*1324 FILLER_0_102_949
*1325 FILLER_0_102_961
*1326 FILLER_0_102_97
*1327 FILLER_0_102_973
*1328 FILLER_0_102_979
*1329 FILLER_0_102_981
*1330 FILLER_0_102_993
*1331 FILLER_0_103_1001
*1332 FILLER_0_103_1007
*1333 FILLER_0_103_1009
*1334 FILLER_0_103_1021
*1335 FILLER_0_103_1033
*1336 FILLER_0_103_1045
*1337 FILLER_0_103_105
*1338 FILLER_0_103_1057
*1339 FILLER_0_103_1063
*1340 FILLER_0_103_1065
*1341 FILLER_0_103_1077
*1342 FILLER_0_103_1089
*1343 FILLER_0_103_1101
*1344 FILLER_0_103_111
*1345 FILLER_0_103_1113
*1346 FILLER_0_103_1119
*1347 FILLER_0_103_1121
*1348 FILLER_0_103_113
*1349 FILLER_0_103_1133
*1350 FILLER_0_103_1145
*1351 FILLER_0_103_1157
*1352 FILLER_0_103_1169
*1353 FILLER_0_103_1175
*1354 FILLER_0_103_1177
*1355 FILLER_0_103_1189
*1356 FILLER_0_103_1201
*1357 FILLER_0_103_1213
*1358 FILLER_0_103_1225
*1359 FILLER_0_103_1231
*1360 FILLER_0_103_1233
*1361 FILLER_0_103_1245
*1362 FILLER_0_103_125
*1363 FILLER_0_103_1257
*1364 FILLER_0_103_1269
*1365 FILLER_0_103_1281
*1366 FILLER_0_103_1287
*1367 FILLER_0_103_1289
*1368 FILLER_0_103_1301
*1369 FILLER_0_103_1313
*1370 FILLER_0_103_1325
*1371 FILLER_0_103_1337
*1372 FILLER_0_103_1343
*1373 FILLER_0_103_1345
*1374 FILLER_0_103_1357
*1375 FILLER_0_103_1369
*1376 FILLER_0_103_137
*1377 FILLER_0_103_1381
*1378 FILLER_0_103_1393
*1379 FILLER_0_103_1399
*1380 FILLER_0_103_1401
*1381 FILLER_0_103_1413
*1382 FILLER_0_103_1425
*1383 FILLER_0_103_1437
*1384 FILLER_0_103_1449
*1385 FILLER_0_103_1455
*1386 FILLER_0_103_1457
*1387 FILLER_0_103_1469
*1388 FILLER_0_103_1481
*1389 FILLER_0_103_149
*1390 FILLER_0_103_1493
*1391 FILLER_0_103_15
*1392 FILLER_0_103_1505
*1393 FILLER_0_103_1511
*1394 FILLER_0_103_1513
*1395 FILLER_0_103_1525
*1396 FILLER_0_103_1537
*1397 FILLER_0_103_1549
*1398 FILLER_0_103_1561
*1399 FILLER_0_103_1567
*1400 FILLER_0_103_1569
*1401 FILLER_0_103_1581
*1402 FILLER_0_103_1593
*1403 FILLER_0_103_1605
*1404 FILLER_0_103_161
*1405 FILLER_0_103_1617
*1406 FILLER_0_103_1623
*1407 FILLER_0_103_1625
*1408 FILLER_0_103_1637
*1409 FILLER_0_103_1649
*1410 FILLER_0_103_1661
*1411 FILLER_0_103_167
*1412 FILLER_0_103_1673
*1413 FILLER_0_103_1679
*1414 FILLER_0_103_1681
*1415 FILLER_0_103_169
*1416 FILLER_0_103_1693
*1417 FILLER_0_103_1705
*1418 FILLER_0_103_1717
*1419 FILLER_0_103_1729
*1420 FILLER_0_103_1735
*1421 FILLER_0_103_1737
*1422 FILLER_0_103_1749
*1423 FILLER_0_103_1761
*1424 FILLER_0_103_1773
*1425 FILLER_0_103_1785
*1426 FILLER_0_103_1791
*1427 FILLER_0_103_1793
*1428 FILLER_0_103_1805
*1429 FILLER_0_103_181
*1430 FILLER_0_103_1817
*1431 FILLER_0_103_1829
*1432 FILLER_0_103_1841
*1433 FILLER_0_103_1847
*1434 FILLER_0_103_1849
*1435 FILLER_0_103_1861
*1436 FILLER_0_103_1873
*1437 FILLER_0_103_1885
*1438 FILLER_0_103_1897
*1439 FILLER_0_103_1903
*1440 FILLER_0_103_1905
*1441 FILLER_0_103_1917
*1442 FILLER_0_103_193
*1443 FILLER_0_103_205
*1444 FILLER_0_103_217
*1445 FILLER_0_103_223
*1446 FILLER_0_103_225
*1447 FILLER_0_103_237
*1448 FILLER_0_103_249
*1449 FILLER_0_103_261
*1450 FILLER_0_103_27
*1451 FILLER_0_103_273
*1452 FILLER_0_103_279
*1453 FILLER_0_103_281
*1454 FILLER_0_103_293
*1455 FILLER_0_103_3
*1456 FILLER_0_103_305
*1457 FILLER_0_103_317
*1458 FILLER_0_103_329
*1459 FILLER_0_103_335
*1460 FILLER_0_103_337
*1461 FILLER_0_103_349
*1462 FILLER_0_103_361
*1463 FILLER_0_103_373
*1464 FILLER_0_103_385
*1465 FILLER_0_103_39
*1466 FILLER_0_103_391
*1467 FILLER_0_103_393
*1468 FILLER_0_103_405
*1469 FILLER_0_103_417
*1470 FILLER_0_103_429
*1471 FILLER_0_103_441
*1472 FILLER_0_103_447
*1473 FILLER_0_103_449
*1474 FILLER_0_103_461
*1475 FILLER_0_103_473
*1476 FILLER_0_103_485
*1477 FILLER_0_103_497
*1478 FILLER_0_103_503
*1479 FILLER_0_103_505
*1480 FILLER_0_103_51
*1481 FILLER_0_103_517
*1482 FILLER_0_103_529
*1483 FILLER_0_103_541
*1484 FILLER_0_103_55
*1485 FILLER_0_103_553
*1486 FILLER_0_103_559
*1487 FILLER_0_103_561
*1488 FILLER_0_103_57
*1489 FILLER_0_103_573
*1490 FILLER_0_103_585
*1491 FILLER_0_103_597
*1492 FILLER_0_103_609
*1493 FILLER_0_103_615
*1494 FILLER_0_103_617
*1495 FILLER_0_103_629
*1496 FILLER_0_103_641
*1497 FILLER_0_103_653
*1498 FILLER_0_103_665
*1499 FILLER_0_103_671
*1500 FILLER_0_103_673
*1501 FILLER_0_103_685
*1502 FILLER_0_103_69
*1503 FILLER_0_103_697
*1504 FILLER_0_103_709
*1505 FILLER_0_103_721
*1506 FILLER_0_103_727